/*---------------------------------------------------------------------------*\
| =========                 |                                                 |
| \\      /  F ield         | OpenFOAM: The Open Source CFD Toolbox           |
|  \\    /   O peration     | Version:  2206                                  |
|   \\  /    A nd           | Website:  www.openfoam.com                      |
|    \\/     M anipulation  |                                                 |
\*---------------------------------------------------------------------------*/
Build  : _76d719d1-20220624 OPENFOAM=2206 version=2206
Arch   : "LSB;label=32;scalar=64"
Exec   : simpleFoam
Date   : Aug 02 2022
Time   : 11:29:51
Host   : fbff8a078fa8
PID    : 294
I/O    : uncollated
Case   : /home/openfoam
nProcs : 1
trapFpe: Floating point exception trapping enabled (FOAM_SIGFPE).
fileModificationChecking : Monitoring run-time modified files using timeStampMaster (fileModificationSkew 5, maxFileModificationPolls 20)
allowSystemOperations : Allowing user-supplied system call operations

// * * * * * * * * * * * * * * * * * * * * * * * * * * * * * * * * * * * * * //
Create time

Create mesh for time = 0


SIMPLE: convergence criteria
    field p	 tolerance 1e-05
    field U	 tolerance 1e-05
    field "(k|omega|gammaInt|ReThetat)"	 tolerance 0.0001

Reading field p

Reading field U

Reading/calculating face flux field phi

Selecting incompressible transport model Newtonian
Selecting turbulence model type RAS
Selecting RAS turbulence model kOmegaSSTLM
Selecting patchDistMethod meshWave
RAS
{
    RASModel        kOmegaSSTLM;
    turbulence      on;
    printCoeffs     on;
    alphaK1         0.85;
    alphaK2         1;
    alphaOmega1     0.5;
    alphaOmega2     0.856;
    gamma1          0.555556;
    gamma2          0.44;
    beta1           0.075;
    beta2           0.0828;
    betaStar        0.09;
    a1              0.31;
    b1              1;
    c1              10;
    F3              false;
    decayControl    false;
    kInf            0;
    omegaInf        0;
    ca1             2;
    ca2             0.06;
    ce1             1;
    ce2             50;
    cThetat         0.03;
    sigmaThetat     2;
}

No MRF models present

No finite volume options present

Starting time loop

forceCoeffs forceCoeffs:
    rho: rhoInf
    Freestream density (rhoInf) set to 1.225
    Not including porosity effects
    magUInf: 42
    lRef   : 1
    Aref   : 3.14
    rhoInf : 1.225
    Selecting all coefficients
    - Drag force: Cd
    - Drag force front: Cd(f)
    - Drag force rear: Cd(r)
    - Lift force: Cl
    - Lift force front: Cl(f)
    - Lift force rear: Cl(r)
    - Pitch moment: CmPitch
    - Roll moment: CmRoll
    - Yaw moment: CmYaw
    - Side force: Cs
    - Side force front: Cs(f)
    - Side force rear: Cs(r)


Time = 1

smoothSolver:  Solving for Ux, Initial residual = 1, Final residual = 0.0105857, No Iterations 1
smoothSolver:  Solving for Uy, Initial residual = 1, Final residual = 0.00764186, No Iterations 1
smoothSolver:  Solving for Uz, Initial residual = 1, Final residual = 0.00978267, No Iterations 1
GAMG:  Solving for p, Initial residual = 1, Final residual = 0.0793925, No Iterations 5
time step continuity errors : sum local = 0.000583559, global = 3.44348e-05, cumulative = 3.44348e-05
smoothSolver:  Solving for omega, Initial residual = 0.381833, Final residual = 0.0031723, No Iterations 1
smoothSolver:  Solving for k, Initial residual = 1, Final residual = 0.00946177, No Iterations 1
smoothSolver:  Solving for ReThetat, Initial residual = 1, Final residual = 7.32768e-07, No Iterations 1
smoothSolver:  Solving for gammaInt, Initial residual = 1, Final residual = 1.20371, No Iterations 100
ExecutionTime = 4.28 s  ClockTime = 5 s

forceCoeffs forceCoeffs write:
    Coefficient	Total	Pressure	Viscous	Internal
    Cd:	-16.868	-0.0125969	-16.8554	0
    Cd(f):	-8.43398	-0.0062965	-8.42768	0
    Cd(r):	-8.43398	-0.00630044	-8.42768	0
    Cl:	-0.00458913	-3.0276e-07	-0.00458883	0
    Cl(f):	-0.00230881	-1.39727e-05	-0.00229484	0
    Cl(r):	-0.00228032	1.367e-05	-0.00229399	0
    CmPitch:	-1.42431e-05	-1.38214e-05	-4.21754e-07	0
    CmRoll:	1.94748e-06	1.96813e-06	-2.06496e-08	0
    CmYaw:	1.69663e-05	1.62567e-05	7.09677e-07	0
    Cs:	0.00190627	1.02598e-07	0.00190617	0
    Cs(f):	0.0009701	1.6308e-05	0.000953792	0
    Cs(r):	0.000936168	-1.62054e-05	0.000952373	0

Time = 2

smoothSolver:  Solving for Ux, Initial residual = 0.40892, Final residual = 0.00501231, No Iterations 1
smoothSolver:  Solving for Uy, Initial residual = 0.289819, Final residual = 0.00343667, No Iterations 1
smoothSolver:  Solving for Uz, Initial residual = 0.408385, Final residual = 0.00494561, No Iterations 1
GAMG:  Solving for p, Initial residual = 0.218451, Final residual = 0.0146213, No Iterations 3
time step continuity errors : sum local = 0.000623374, global = 3.19899e-05, cumulative = 6.64246e-05
smoothSolver:  Solving for omega, Initial residual = 0.252996, Final residual = 0.00212226, No Iterations 1
smoothSolver:  Solving for k, Initial residual = 0.877851, Final residual = 0.00730114, No Iterations 1
smoothSolver:  Solving for ReThetat, Initial residual = 0.957427, Final residual = 6.86101e-07, No Iterations 1
smoothSolver:  Solving for gammaInt, Initial residual = 0.355442, Final residual = 0.372648, No Iterations 100
ExecutionTime = 6.47 s  ClockTime = 7 s

forceCoeffs forceCoeffs write:
    Coefficient	Total	Pressure	Viscous	Internal
    Cd:	-18.9717	-0.0138843	-18.9579	0
    Cd(f):	-9.48587	-0.00693819	-9.47893	0
    Cd(r):	-9.48588	-0.00694607	-9.47893	0
    Cl:	-0.00688079	-1.12923e-06	-0.00687967	0
    Cl(f):	-0.00345747	-1.71253e-05	-0.00344035	0
    Cl(r):	-0.00342332	1.59961e-05	-0.00343932	0
    CmPitch:	-1.7075e-05	-1.65607e-05	-5.14293e-07	0
    CmRoll:	3.96823e-06	3.93914e-06	2.90885e-08	0
    CmYaw:	1.84333e-05	1.76212e-05	8.12141e-07	0
    Cs:	-0.000559589	-2.24158e-08	-0.000559566	0
    Cs(f):	-0.000261361	1.761e-05	-0.000278971	0
    Cs(r):	-0.000298228	-1.76324e-05	-0.000280595	0

Time = 3

smoothSolver:  Solving for Ux, Initial residual = 0.251534, Final residual = 0.00308444, No Iterations 1
smoothSolver:  Solving for Uy, Initial residual = 0.162237, Final residual = 0.00194326, No Iterations 1
smoothSolver:  Solving for Uz, Initial residual = 0.251873, Final residual = 0.00304, No Iterations 1
GAMG:  Solving for p, Initial residual = 0.215786, Final residual = 0.0113249, No Iterations 3
time step continuity errors : sum local = 0.000682192, global = 3.86078e-05, cumulative = 0.000105032
smoothSolver:  Solving for omega, Initial residual = 0.183866, Final residual = 0.0015541, No Iterations 1
smoothSolver:  Solving for k, Initial residual = 0.403964, Final residual = 0.00338649, No Iterations 1
smoothSolver:  Solving for ReThetat, Initial residual = 0.866297, Final residual = 6.05636e-07, No Iterations 1
smoothSolver:  Solving for gammaInt, Initial residual = 0.257948, Final residual = 0.255255, No Iterations 100
ExecutionTime = 8.94 s  ClockTime = 10 s

forceCoeffs forceCoeffs write:
    Coefficient	Total	Pressure	Viscous	Internal
    Cd:	-13.9852	-0.0151097	-13.9701	0
    Cd(f):	-6.9926	-0.00755297	-6.98505	0
    Cd(r):	-6.9926	-0.0075567	-6.98505	0
    Cl:	0.0139741	8.64005e-07	0.0139732	0
    Cl(f):	0.00697807	-8.12644e-06	0.00698619	0
    Cl(r):	0.00699601	8.99045e-06	0.00698702	0
    CmPitch:	-8.97052e-06	-8.55844e-06	-4.12074e-07	0
    CmRoll:	1.982e-06	1.86416e-06	1.17845e-07	0
    CmYaw:	-2.67075e-05	-2.6955e-05	2.47543e-07	0
    Cs:	-0.00676671	-1.06115e-06	-0.00676565	0
    Cs(f):	-0.00341006	-2.74856e-05	-0.00338258	0
    Cs(r):	-0.00335665	2.64245e-05	-0.00338307	0

Time = 4

smoothSolver:  Solving for Ux, Initial residual = 0.156193, Final residual = 0.00192015, No Iterations 1
smoothSolver:  Solving for Uy, Initial residual = 0.0986956, Final residual = 0.00119848, No Iterations 1
smoothSolver:  Solving for Uz, Initial residual = 0.155554, Final residual = 0.00187824, No Iterations 1
GAMG:  Solving for p, Initial residual = 0.199893, Final residual = 0.0175805, No Iterations 3
time step continuity errors : sum local = 0.00119669, global = 2.05333e-05, cumulative = 0.000125566
smoothSolver:  Solving for omega, Initial residual = 0.14141, Final residual = 0.00120187, No Iterations 1
smoothSolver:  Solving for k, Initial residual = 0.257333, Final residual = 0.00216968, No Iterations 1
smoothSolver:  Solving for ReThetat, Initial residual = 0.74478, Final residual = 5.06727e-07, No Iterations 1
smoothSolver:  Solving for gammaInt, Initial residual = 0.215818, Final residual = 0.206317, No Iterations 100
ExecutionTime = 11.33 s  ClockTime = 12 s

forceCoeffs forceCoeffs write:
    Coefficient	Total	Pressure	Viscous	Internal
    Cd:	-5.84551	-0.0151412	-5.83037	0
    Cd(f):	-2.92276	-0.00757434	-2.91518	0
    Cd(r):	-2.92275	-0.00756684	-2.91518	0
    Cl:	0.0326881	4.77775e-06	0.0326833	0
    Cl(f):	0.0163492	6.24741e-06	0.0163429	0
    Cl(r):	0.0163389	-1.46965e-06	0.0163404	0
    CmPitch:	5.11576e-06	3.85853e-06	1.25723e-06	0
    CmRoll:	-3.50899e-06	-3.75118e-06	2.42195e-07	0
    CmYaw:	-6.53748e-05	-6.47909e-05	-5.83857e-07	0
    Cs:	-0.00776064	-3.45126e-06	-0.00775719	0
    Cs(f):	-0.00394569	-6.65166e-05	-0.00387918	0
    Cs(r):	-0.00381494	6.30653e-05	-0.00387801	0

Time = 5

smoothSolver:  Solving for Ux, Initial residual = 0.0846482, Final residual = 0.00104388, No Iterations 1
smoothSolver:  Solving for Uy, Initial residual = 0.0549413, Final residual = 0.000674209, No Iterations 1
smoothSolver:  Solving for Uz, Initial residual = 0.0823774, Final residual = 0.000997665, No Iterations 1
GAMG:  Solving for p, Initial residual = 0.18262, Final residual = 0.0111326, No Iterations 4
time step continuity errors : sum local = 0.00075493, global = -1.9718e-05, cumulative = 0.000105848
smoothSolver:  Solving for omega, Initial residual = 0.112697, Final residual = 0.000961328, No Iterations 1
smoothSolver:  Solving for k, Initial residual = 0.186614, Final residual = 0.00158036, No Iterations 1
smoothSolver:  Solving for ReThetat, Initial residual = 0.613822, Final residual = 4.05526e-07, No Iterations 1
smoothSolver:  Solving for gammaInt, Initial residual = 0.191971, Final residual = 0.181565, No Iterations 100
ExecutionTime = 13.68 s  ClockTime = 14 s

forceCoeffs forceCoeffs write:
    Coefficient	Total	Pressure	Viscous	Internal
    Cd:	2.01552	-0.0142309	2.02975	0
    Cd(f):	1.00775	-0.00712488	1.01488	0
    Cd(r):	1.00777	-0.00710601	1.01488	0
    Cl:	0.020136	7.48201e-06	0.0201285	0
    Cl(f):	0.01008	1.38723e-05	0.0100662	0
    Cl(r):	0.0100559	-6.39026e-06	0.0100623	0
    CmPitch:	1.20451e-05	1.01313e-05	1.91382e-06	0
    CmRoll:	-9.12791e-06	-9.43432e-06	3.06412e-07	0
    CmYaw:	-4.97829e-05	-4.80323e-05	-1.7506e-06	0
    Cs:	-0.00169149	-4.13722e-06	-0.00168735	0
    Cs(f):	-0.000895527	-5.01009e-05	-0.000845426	0
    Cs(r):	-0.000795961	4.59637e-05	-0.000841925	0

Time = 6

smoothSolver:  Solving for Ux, Initial residual = 0.0386085, Final residual = 0.000463495, No Iterations 1
smoothSolver:  Solving for Uy, Initial residual = 0.0268884, Final residual = 0.000325569, No Iterations 1
smoothSolver:  Solving for Uz, Initial residual = 0.0349794, Final residual = 0.000411706, No Iterations 1
GAMG:  Solving for p, Initial residual = 0.213877, Final residual = 0.0202302, No Iterations 3
time step continuity errors : sum local = 0.00110446, global = -3.81153e-05, cumulative = 6.77324e-05
smoothSolver:  Solving for omega, Initial residual = 0.0925257, Final residual = 0.000791657, No Iterations 1
smoothSolver:  Solving for k, Initial residual = 0.145663, Final residual = 0.00123824, No Iterations 1
smoothSolver:  Solving for ReThetat, Initial residual = 0.491217, Final residual = 3.14142e-07, No Iterations 1
smoothSolver:  Solving for gammaInt, Initial residual = 0.173816, Final residual = 0.164813, No Iterations 100
ExecutionTime = 15.86 s  ClockTime = 17 s

forceCoeffs forceCoeffs write:
    Coefficient	Total	Pressure	Viscous	Internal
    Cd:	6.48656	-0.0129096	6.49947	0
    Cd(f):	3.24326	-0.00647139	3.24974	0
    Cd(r):	3.2433	-0.00643823	3.24974	0
    Cl:	0.00681213	8.96151e-06	0.00680317	0
    Cl(f):	0.00342949	2.60164e-05	0.00340348	0
    Cl(r):	0.00338264	-1.70549e-05	0.00339969	0
    CmPitch:	2.34259e-05	2.15356e-05	1.89033e-06	0
    CmRoll:	-1.63063e-05	-1.6579e-05	2.72695e-07	0
    CmYaw:	-3.15565e-05	-2.85268e-05	-3.02966e-06	0
    Cs:	0.00264791	-1.96522e-06	0.00264988	0
    Cs(f):	0.0012924	-2.95094e-05	0.00132191	0
    Cs(r):	0.00135551	2.75442e-05	0.00132797	0

Time = 7

smoothSolver:  Solving for Ux, Initial residual = 0.05256, Final residual = 0.000627411, No Iterations 1
smoothSolver:  Solving for Uy, Initial residual = 0.0376125, Final residual = 0.000438379, No Iterations 1
smoothSolver:  Solving for Uz, Initial residual = 0.0534216, Final residual = 0.000628423, No Iterations 1
GAMG:  Solving for p, Initial residual = 0.267644, Final residual = 0.0142149, No Iterations 3
time step continuity errors : sum local = 0.000533775, global = -3.3748e-05, cumulative = 3.39844e-05
smoothSolver:  Solving for omega, Initial residual = 0.0785585, Final residual = 0.000673751, No Iterations 1
smoothSolver:  Solving for k, Initial residual = 0.119181, Final residual = 0.00101697, No Iterations 1
smoothSolver:  Solving for ReThetat, Initial residual = 0.387527, Final residual = 2.39588e-07, No Iterations 1
smoothSolver:  Solving for gammaInt, Initial residual = 0.160029, Final residual = 0.149332, No Iterations 100
ExecutionTime = 18.26 s  ClockTime = 19 s

forceCoeffs forceCoeffs write:
    Coefficient	Total	Pressure	Viscous	Internal
    Cd:	7.30977	-0.0116589	7.32143	0
    Cd(f):	3.65487	-0.00584886	3.66072	0
    Cd(r):	3.65491	-0.00581002	3.66072	0
    Cl:	-0.0144193	7.91925e-06	-0.0144273	0
    Cl(f):	-0.00718636	2.60331e-05	-0.00721239	0
    Cl(r):	-0.00723298	-1.81139e-05	-0.00721487	0
    CmPitch:	2.3312e-05	2.20735e-05	1.23849e-06	0
    CmRoll:	-1.92748e-05	-1.942e-05	1.45226e-07	0
    CmYaw:	1.15112e-05	1.51079e-05	-3.59669e-06	0
    Cs:	0.0046823	4.49893e-07	0.00468185	0
    Cs(f):	0.00235266	1.53328e-05	0.00233733	0
    Cs(r):	0.00232964	-1.4883e-05	0.00234452	0

Time = 8

smoothSolver:  Solving for Ux, Initial residual = 0.0920146, Final residual = 0.00112097, No Iterations 1
smoothSolver:  Solving for Uy, Initial residual = 0.0635876, Final residual = 0.00076847, No Iterations 1
smoothSolver:  Solving for Uz, Initial residual = 0.0936807, Final residual = 0.00112399, No Iterations 1
GAMG:  Solving for p, Initial residual = 0.412309, Final residual = 0.0259464, No Iterations 3
time step continuity errors : sum local = 0.000588104, global = -7.07412e-05, cumulative = -3.67568e-05
smoothSolver:  Solving for omega, Initial residual = 0.0683843, Final residual = 0.000588589, No Iterations 1
smoothSolver:  Solving for k, Initial residual = 0.1007, Final residual = 0.000862779, No Iterations 1
smoothSolver:  Solving for ReThetat, Initial residual = 0.305457, Final residual = 1.82167e-07, No Iterations 1
smoothSolver:  Solving for gammaInt, Initial residual = 0.148591, Final residual = 0.137958, No Iterations 100
ExecutionTime = 20.7 s  ClockTime = 21 s

forceCoeffs forceCoeffs write:
    Coefficient	Total	Pressure	Viscous	Internal
    Cd:	5.40142	-0.0107629	5.41218	0
    Cd(f):	2.70069	-0.00539953	2.70609	0
    Cd(r):	2.70073	-0.00536337	2.70609	0
    Cl:	-0.0295634	4.60715e-06	-0.029568	0
    Cl(f):	-0.014767	1.70339e-05	-0.014784	0
    Cl(r):	-0.0147964	-1.24268e-05	-0.014784	0
    CmPitch:	1.47359e-05	1.47303e-05	5.58732e-09	0
    CmRoll:	-1.79381e-05	-1.80838e-05	1.45615e-07	0
    CmYaw:	5.90953e-05	6.15433e-05	-2.448e-06	0
    Cs:	0.00284921	1.61739e-06	0.0028476	0
    Cs(f):	0.0014837	6.2352e-05	0.00142135	0
    Cs(r):	0.00136551	-6.07346e-05	0.00142625	0

Time = 9

smoothSolver:  Solving for Ux, Initial residual = 0.109576, Final residual = 0.00134349, No Iterations 1
smoothSolver:  Solving for Uy, Initial residual = 0.0737255, Final residual = 0.000900701, No Iterations 1
smoothSolver:  Solving for Uz, Initial residual = 0.107873, Final residual = 0.00130175, No Iterations 1
GAMG:  Solving for p, Initial residual = 0.270337, Final residual = 0.0160126, No Iterations 3
time step continuity errors : sum local = 0.000543203, global = -5.92672e-05, cumulative = -9.60239e-05
smoothSolver:  Solving for omega, Initial residual = 0.0606496, Final residual = 0.00052408, No Iterations 1
smoothSolver:  Solving for k, Initial residual = 0.0870615, Final residual = 0.000749382, No Iterations 1
smoothSolver:  Solving for ReThetat, Initial residual = 0.242736, Final residual = 1.39221e-07, No Iterations 1
smoothSolver:  Solving for gammaInt, Initial residual = 0.137045, Final residual = 0.127172, No Iterations 100
ExecutionTime = 22.95 s  ClockTime = 24 s

forceCoeffs forceCoeffs write:
    Coefficient	Total	Pressure	Viscous	Internal
    Cd:	2.26475	-0.0104506	2.2752	0
    Cd(f):	1.13236	-0.00523634	1.1376	0
    Cd(r):	1.13238	-0.00521431	1.1376	0
    Cl:	-0.0344716	4.22691e-07	-0.034472	0
    Cl(f):	-0.017234	3.12141e-06	-0.0172371	0
    Cl(r):	-0.0172376	-2.69872e-06	-0.0172349	0
    CmPitch:	1.84363e-06	2.91007e-06	-1.06644e-06	0
    CmRoll:	-1.0836e-05	-1.10159e-05	1.7996e-07	0
    CmYaw:	8.59038e-05	8.70212e-05	-1.11736e-06	0
    Cs:	-5.47217e-05	2.20207e-06	-5.69237e-05	0
    Cs(f):	5.8543e-05	8.81222e-05	-2.95792e-05	0
    Cs(r):	-0.000113265	-8.59201e-05	-2.73445e-05	0

Time = 10

smoothSolver:  Solving for Ux, Initial residual = 0.0990041, Final residual = 0.00120675, No Iterations 1
smoothSolver:  Solving for Uy, Initial residual = 0.0630658, Final residual = 0.000773606, No Iterations 1
smoothSolver:  Solving for Uz, Initial residual = 0.0907775, Final residual = 0.00108156, No Iterations 1
GAMG:  Solving for p, Initial residual = 0.207642, Final residual = 0.0147038, No Iterations 3
time step continuity errors : sum local = 0.000628079, global = -2.27056e-05, cumulative = -0.00011873
smoothSolver:  Solving for omega, Initial residual = 0.0544811, Final residual = 0.00047337, No Iterations 1
smoothSolver:  Solving for k, Initial residual = 0.0765981, Final residual = 0.000662516, No Iterations 1
smoothSolver:  Solving for ReThetat, Initial residual = 0.195363, Final residual = 1.07449e-07, No Iterations 1
smoothSolver:  Solving for gammaInt, Initial residual = 0.128334, Final residual = 0.11839, No Iterations 100
ExecutionTime = 25.4 s  ClockTime = 26 s

forceCoeffs forceCoeffs write:
    Coefficient	Total	Pressure	Viscous	Internal
    Cd:	-0.689896	-0.010632	-0.679264	0
    Cd(f):	-0.344949	-0.00531759	-0.339632	0
    Cd(r):	-0.344946	-0.00531443	-0.339632	0
    Cl:	-0.0261603	-2.85447e-06	-0.0261574	0
    Cl(f):	-0.0130897	-9.86504e-06	-0.0130799	0
    Cl(r):	-0.0130706	7.01057e-06	-0.0130776	0
    CmPitch:	-9.58898e-06	-8.4378e-06	-1.15118e-06	0
    CmRoll:	-1.45048e-06	-1.58175e-06	1.31269e-07	0
    CmYaw:	8.27549e-05	8.3605e-05	-8.50057e-07	0
    Cs:	-0.00176696	2.37669e-06	-0.00176934	0
    Cs(f):	-0.000800727	8.47933e-05	-0.00088552	0
    Cs(r):	-0.000966237	-8.24166e-05	-0.00088382	0

Time = 11

smoothSolver:  Solving for Ux, Initial residual = 0.0726582, Final residual = 0.000882063, No Iterations 1
smoothSolver:  Solving for Uy, Initial residual = 0.0426261, Final residual = 0.000525128, No Iterations 1
smoothSolver:  Solving for Uz, Initial residual = 0.0623257, Final residual = 0.000735278, No Iterations 1
GAMG:  Solving for p, Initial residual = 0.19, Final residual = 0.0132805, No Iterations 3
time step continuity errors : sum local = 0.000583379, global = 1.18436e-05, cumulative = -0.000106886
smoothSolver:  Solving for omega, Initial residual = 0.0494569, Final residual = 0.000432544, No Iterations 1
smoothSolver:  Solving for k, Initial residual = 0.0683062, Final residual = 0.000594021, No Iterations 1
smoothSolver:  Solving for ReThetat, Initial residual = 0.159574, Final residual = 8.41241e-08, No Iterations 1
smoothSolver:  Solving for gammaInt, Initial residual = 0.120971, Final residual = 0.111255, No Iterations 100
ExecutionTime = 27.77 s  ClockTime = 29 s

forceCoeffs forceCoeffs write:
    Coefficient	Total	Pressure	Viscous	Internal
    Cd:	-2.52506	-0.0110237	-2.51404	0
    Cd(f):	-1.26252	-0.00550457	-1.25702	0
    Cd(r):	-1.26254	-0.00551908	-1.25702	0
    Cl:	-0.00861647	-4.58305e-06	-0.00861189	0
    Cl(f):	-0.00432339	-1.66083e-05	-0.00430678	0
    Cl(r):	-0.00429309	1.20252e-05	-0.00430511	0
    CmPitch:	-1.51495e-05	-1.43167e-05	-8.32777e-07	0
    CmRoll:	7.33261e-06	7.2566e-06	7.60016e-08	0
    CmYaw:	5.21119e-05	5.21864e-05	-7.44954e-08	0
    Cs:	-0.0011656	1.16661e-06	-0.00116676	0
    Cs(f):	-0.000530686	5.27697e-05	-0.000583456	0
    Cs(r):	-0.00063491	-5.16031e-05	-0.000583307	0

Time = 12

smoothSolver:  Solving for Ux, Initial residual = 0.0526745, Final residual = 0.00063439, No Iterations 1
smoothSolver:  Solving for Uy, Initial residual = 0.0307493, Final residual = 0.000365408, No Iterations 1
smoothSolver:  Solving for Uz, Initial residual = 0.0482997, Final residual = 0.000567414, No Iterations 1
GAMG:  Solving for p, Initial residual = 0.210867, Final residual = 0.0109016, No Iterations 3
time step continuity errors : sum local = 0.000382277, global = 2.07415e-05, cumulative = -8.61445e-05
smoothSolver:  Solving for omega, Initial residual = 0.0452835, Final residual = 0.000398827, No Iterations 1
smoothSolver:  Solving for k, Initial residual = 0.0615152, Final residual = 0.000538081, No Iterations 1
smoothSolver:  Solving for ReThetat, Initial residual = 0.132367, Final residual = 6.70097e-08, No Iterations 1
smoothSolver:  Solving for gammaInt, Initial residual = 0.115797, Final residual = 0.106777, No Iterations 100
ExecutionTime = 30.2 s  ClockTime = 31 s

forceCoeffs forceCoeffs write:
    Coefficient	Total	Pressure	Viscous	Internal
    Cd:	-2.96455	-0.0113893	-2.95316	0
    Cd(f):	-1.48226	-0.00568264	-1.47658	0
    Cd(r):	-1.48229	-0.00570667	-1.47658	0
    Cl:	0.00984501	-4.19155e-06	0.00984921	0
    Cl(f):	0.00490914	-1.53006e-05	0.00492444	0
    Cl(r):	0.00493587	1.1109e-05	0.00492476	0
    CmPitch:	-1.33656e-05	-1.32048e-05	-1.60817e-07	0
    CmRoll:	1.20753e-05	1.20168e-05	5.85014e-08	0
    CmYaw:	9.29091e-06	8.8744e-06	4.16509e-07	0
    Cs:	0.00108476	-4.55607e-07	0.00108522	0
    Cs(f):	0.000551671	8.6466e-06	0.000543025	0
    Cs(r):	0.00053309	-9.1022e-06	0.000542192	0

Time = 13

smoothSolver:  Solving for Ux, Initial residual = 0.0519804, Final residual = 0.000634589, No Iterations 1
smoothSolver:  Solving for Uy, Initial residual = 0.0317501, Final residual = 0.000385821, No Iterations 1
smoothSolver:  Solving for Uz, Initial residual = 0.0505085, Final residual = 0.000606837, No Iterations 1
GAMG:  Solving for p, Initial residual = 0.338231, Final residual = 0.0225615, No Iterations 3
time step continuity errors : sum local = 0.000404891, global = 4.66486e-05, cumulative = -3.94959e-05
smoothSolver:  Solving for omega, Initial residual = 0.0417365, Final residual = 0.000370165, No Iterations 1
smoothSolver:  Solving for k, Initial residual = 0.055806, Final residual = 0.000491106, No Iterations 1
smoothSolver:  Solving for ReThetat, Initial residual = 0.111538, Final residual = 5.43265e-08, No Iterations 1
smoothSolver:  Solving for gammaInt, Initial residual = 0.110082, Final residual = 0.101492, No Iterations 100
ExecutionTime = 32.73 s  ClockTime = 34 s

forceCoeffs forceCoeffs write:
    Coefficient	Total	Pressure	Viscous	Internal
    Cd:	-2.33437	-0.0115782	-2.32279	0
    Cd(f):	-1.16717	-0.00577675	-1.16139	0
    Cd(r):	-1.1672	-0.00580142	-1.16139	0
    Cl:	0.0209039	-2.01347e-06	0.0209059	0
    Cl(f):	0.0104457	-7.99261e-06	0.0104537	0
    Cl(r):	0.0104581	5.97914e-06	0.0104522	0
    CmPitch:	-6.20568e-06	-6.98587e-06	7.80194e-07	0
    CmRoll:	1.23637e-05	1.23379e-05	2.58914e-08	0
    CmYaw:	-3.08014e-05	-2.99416e-05	-8.5987e-07	0
    Cs:	0.00369509	-5.5583e-07	0.00369564	0
    Cs(f):	0.00181674	-3.02195e-05	0.00184696	0
    Cs(r):	0.00187835	2.96637e-05	0.00184868	0

Time = 14

smoothSolver:  Solving for Ux, Initial residual = 0.0514459, Final residual = 0.000634635, No Iterations 1
smoothSolver:  Solving for Uy, Initial residual = 0.0321497, Final residual = 0.000396362, No Iterations 1
smoothSolver:  Solving for Uz, Initial residual = 0.0484041, Final residual = 0.00058642, No Iterations 1
GAMG:  Solving for p, Initial residual = 0.303426, Final residual = 0.0165993, No Iterations 3
time step continuity errors : sum local = 0.000309071, global = 6.12217e-05, cumulative = 2.17258e-05
smoothSolver:  Solving for omega, Initial residual = 0.0386661, Final residual = 0.000345248, No Iterations 1
smoothSolver:  Solving for k, Initial residual = 0.0509059, Final residual = 0.000450753, No Iterations 1
smoothSolver:  Solving for ReThetat, Initial residual = 0.095433, Final residual = 4.48307e-08, No Iterations 1
smoothSolver:  Solving for gammaInt, Initial residual = 0.106285, Final residual = 0.098415, No Iterations 100
ExecutionTime = 35.14 s  ClockTime = 36 s

forceCoeffs forceCoeffs write:
    Coefficient	Total	Pressure	Viscous	Internal
    Cd:	-1.22499	-0.0115285	-1.21346	0
    Cd(f):	-0.612486	-0.00575605	-0.60673	0
    Cd(r):	-0.612503	-0.00577245	-0.60673	0
    Cl:	0.0230943	8.65815e-07	0.0230935	0
    Cl(f):	0.011549	8.37127e-07	0.0115482	0
    Cl(r):	0.0115453	2.86875e-08	0.0115453	0
    CmPitch:	1.87177e-06	4.0422e-07	1.46755e-06	0
    CmRoll:	8.20069e-06	8.20188e-06	-1.18797e-09	0
    CmYaw:	-5.53116e-05	-5.22371e-05	-3.07449e-06	0
    Cs:	0.00491952	4.97875e-07	0.00491902	0
    Cs(f):	0.00240445	-5.19882e-05	0.00245643	0
    Cs(r):	0.00251507	5.24861e-05	0.00246258	0

Time = 15

smoothSolver:  Solving for Ux, Initial residual = 0.0440338, Final residual = 0.000540326, No Iterations 1
smoothSolver:  Solving for Uy, Initial residual = 0.0280374, Final residual = 0.000344885, No Iterations 1
smoothSolver:  Solving for Uz, Initial residual = 0.0390858, Final residual = 0.000467942, No Iterations 1
GAMG:  Solving for p, Initial residual = 0.184608, Final residual = 0.00967741, No Iterations 3
time step continuity errors : sum local = 0.000281257, global = 3.50888e-05, cumulative = 5.68146e-05
smoothSolver:  Solving for omega, Initial residual = 0.0359597, Final residual = 0.0003231, No Iterations 1
smoothSolver:  Solving for k, Initial residual = 0.0467205, Final residual = 0.000416251, No Iterations 1
smoothSolver:  Solving for ReThetat, Initial residual = 0.0828296, Final residual = 3.76675e-08, No Iterations 1
smoothSolver:  Solving for gammaInt, Initial residual = 0.103008, Final residual = 0.0945031, No Iterations 100
ExecutionTime = 37.43 s  ClockTime = 38 s

forceCoeffs forceCoeffs write:
    Coefficient	Total	Pressure	Viscous	Internal
    Cd:	-0.125625	-0.0112684	-0.114357	0
    Cd(f):	-0.0628108	-0.00563247	-0.0571784	0
    Cd(r):	-0.0628144	-0.00563592	-0.0571784	0
    Cl:	0.0173379	3.28949e-06	0.0173346	0
    Cl(f):	0.00867672	7.92533e-06	0.00866879	0
    Cl(r):	0.00866115	-4.63584e-06	0.00866578	0
    CmPitch:	7.78407e-06	6.28058e-06	1.50349e-06	0
    CmRoll:	1.7663e-06	1.7271e-06	3.91925e-08	0
    CmYaw:	-5.68573e-05	-5.31714e-05	-3.68596e-06	0
    Cs:	0.00376884	8.55447e-07	0.00376798	0
    Cs(f):	0.00182756	-5.27436e-05	0.0018803	0
    Cs(r):	0.00194128	5.35991e-05	0.00188768	0

Time = 16

smoothSolver:  Solving for Ux, Initial residual = 0.0329159, Final residual = 0.000400282, No Iterations 1
smoothSolver:  Solving for Uy, Initial residual = 0.0213848, Final residual = 0.000259548, No Iterations 1
smoothSolver:  Solving for Uz, Initial residual = 0.0284727, Final residual = 0.000334639, No Iterations 1
GAMG:  Solving for p, Initial residual = 0.137098, Final residual = 0.00752241, No Iterations 3
time step continuity errors : sum local = 0.000270473, global = 6.36016e-06, cumulative = 6.31748e-05
smoothSolver:  Solving for omega, Initial residual = 0.0335635, Final residual = 0.000303343, No Iterations 1
smoothSolver:  Solving for k, Initial residual = 0.043114, Final residual = 0.000386469, No Iterations 1
smoothSolver:  Solving for ReThetat, Initial residual = 0.0727897, Final residual = 3.21991e-08, No Iterations 1
smoothSolver:  Solving for gammaInt, Initial residual = 0.098843, Final residual = 0.0909606, No Iterations 100
ExecutionTime = 39.63 s  ClockTime = 41 s

forceCoeffs forceCoeffs write:
    Coefficient	Total	Pressure	Viscous	Internal
    Cd:	0.60575	-0.0109005	0.61665	0
    Cd(f):	0.30287	-0.00545464	0.308325	0
    Cd(r):	0.302879	-0.0054459	0.308325	0
    Cl:	0.00676961	4.56706e-06	0.00676504	0
    Cl(f):	0.00339466	1.12309e-05	0.00338342	0
    Cl(r):	0.00337496	-6.66382e-06	0.00338162	0
    CmPitch:	9.85004e-06	8.94735e-06	9.02688e-07	0
    CmRoll:	-4.30654e-06	-4.37133e-06	6.47974e-08	0
    CmYaw:	-3.82411e-05	-3.62246e-05	-2.01649e-06	0
    Cs:	0.00106974	3.01003e-09	0.00106974	0
    Cs(f):	0.00049663	-3.62231e-05	0.000532853	0
    Cs(r):	0.000573112	3.62261e-05	0.000536886	0

Time = 17

smoothSolver:  Solving for Ux, Initial residual = 0.023223, Final residual = 0.000279752, No Iterations 1
smoothSolver:  Solving for Uy, Initial residual = 0.0152885, Final residual = 0.000181706, No Iterations 1
smoothSolver:  Solving for Uz, Initial residual = 0.0205616, Final residual = 0.000238563, No Iterations 1
GAMG:  Solving for p, Initial residual = 0.120907, Final residual = 0.00608166, No Iterations 3
time step continuity errors : sum local = 0.000217068, global = -5.71489e-06, cumulative = 5.74599e-05
smoothSolver:  Solving for omega, Initial residual = 0.0314115, Final residual = 0.000285427, No Iterations 1
smoothSolver:  Solving for k, Initial residual = 0.0399897, Final residual = 0.000360595, No Iterations 1
smoothSolver:  Solving for ReThetat, Initial residual = 0.0646703, Final residual = 2.79555e-08, No Iterations 1
smoothSolver:  Solving for gammaInt, Initial residual = 0.0963895, Final residual = 0.0884856, No Iterations 100
ExecutionTime = 42.04 s  ClockTime = 43 s

forceCoeffs forceCoeffs write:
    Coefficient	Total	Pressure	Viscous	Internal
    Cd:	0.839402	-0.0105361	0.849938	0
    Cd(f):	0.419693	-0.00527603	0.424969	0
    Cd(r):	0.419709	-0.0052601	0.424969	0
    Cl:	-0.00384156	4.65432e-06	-0.00384621	0
    Cl(f):	-0.00191231	1.05966e-05	-0.00192291	0
    Cl(r):	-0.00192925	-5.94224e-06	-0.00192331	0
    CmPitch:	8.47042e-06	8.2694e-06	2.01022e-07	0
    CmRoll:	-7.88179e-06	-7.9656e-06	8.38086e-08	0
    CmYaw:	-1.06836e-05	-1.00614e-05	-6.22177e-07	0
    Cs:	-0.00173184	-5.00448e-07	-0.00173133	0
    Cs(f):	-0.000876601	-1.03116e-05	-0.00086629	0
    Cs(r):	-0.000855234	9.81116e-06	-0.000865045	0

Time = 18

smoothSolver:  Solving for Ux, Initial residual = 0.0202163, Final residual = 0.000242399, No Iterations 1
smoothSolver:  Solving for Uy, Initial residual = 0.0139865, Final residual = 0.000166531, No Iterations 1
smoothSolver:  Solving for Uz, Initial residual = 0.0192244, Final residual = 0.000224827, No Iterations 1
GAMG:  Solving for p, Initial residual = 0.134223, Final residual = 0.00803048, No Iterations 3
time step continuity errors : sum local = 0.000223839, global = -1.93988e-05, cumulative = 3.80612e-05
smoothSolver:  Solving for omega, Initial residual = 0.029453, Final residual = 0.000268986, No Iterations 1
smoothSolver:  Solving for k, Initial residual = 0.0372698, Final residual = 0.000338, No Iterations 1
smoothSolver:  Solving for ReThetat, Initial residual = 0.0580729, Final residual = 2.46305e-08, No Iterations 1
smoothSolver:  Solving for gammaInt, Initial residual = 0.0930053, Final residual = 0.085177, No Iterations 100
ExecutionTime = 45.15 s  ClockTime = 46 s

forceCoeffs forceCoeffs write:
    Coefficient	Total	Pressure	Viscous	Internal
    Cd:	0.662684	-0.0102472	0.672931	0
    Cd(f):	0.331333	-0.00513214	0.336466	0
    Cd(r):	0.33135	-0.00511506	0.336465	0
    Cl:	-0.0104907	3.80743e-06	-0.0104945	0
    Cl(f):	-0.00524043	7.15061e-06	-0.00524758	0
    Cl(r):	-0.0052503	-3.34318e-06	-0.00524696	0
    CmPitch:	4.93645e-06	5.2469e-06	-3.10447e-07	0
    CmRoll:	-8.42157e-06	-8.53885e-06	1.17275e-07	0
    CmYaw:	1.41512e-05	1.32521e-05	8.99072e-07	0
    Cs:	-0.0037333	-1.25192e-06	-0.00373204	0
    Cs(f):	-0.0018525	1.26261e-05	-0.00186512	0
    Cs(r):	-0.0018808	-1.38781e-05	-0.00186692	0

Time = 19

smoothSolver:  Solving for Ux, Initial residual = 0.0220714, Final residual = 0.00026835, No Iterations 1
smoothSolver:  Solving for Uy, Initial residual = 0.0152911, Final residual = 0.000187, No Iterations 1
smoothSolver:  Solving for Uz, Initial residual = 0.0210435, Final residual = 0.000249789, No Iterations 1
GAMG:  Solving for p, Initial residual = 0.191239, Final residual = 0.0102502, No Iterations 3
time step continuity errors : sum local = 0.000180437, global = -3.98775e-05, cumulative = -1.81638e-06
smoothSolver:  Solving for omega, Initial residual = 0.0276877, Final residual = 0.000254032, No Iterations 1
smoothSolver:  Solving for k, Initial residual = 0.034862, Final residual = 0.000317908, No Iterations 1
smoothSolver:  Solving for ReThetat, Initial residual = 0.0526409, Final residual = 2.19845e-08, No Iterations 1
smoothSolver:  Solving for gammaInt, Initial residual = 0.0904236, Final residual = 0.0819613, No Iterations 100
ExecutionTime = 47.64 s  ClockTime = 49 s

forceCoeffs forceCoeffs write:
    Coefficient	Total	Pressure	Viscous	Internal
    Cd:	0.282276	-0.0100574	0.292334	0
    Cd(f):	0.141132	-0.00503502	0.146167	0
    Cd(r):	0.141144	-0.00502234	0.146167	0
    Cl:	-0.012024	2.60448e-06	-0.0120266	0
    Cl(f):	-0.00601084	2.9807e-06	-0.00601382	0
    Cl(r):	-0.00601318	-3.76215e-07	-0.0060128	0
    CmPitch:	1.16901e-06	1.67846e-06	-5.09448e-07	0
    CmRoll:	-6.21429e-06	-6.34074e-06	1.26449e-07	0
    CmYaw:	2.87146e-05	2.68291e-05	1.88543e-06	0
    Cs:	-0.00419088	-1.82356e-06	-0.00418906	0
    Cs(f):	-0.00206673	2.59173e-05	-0.00209264	0
    Cs(r):	-0.00212415	-2.77409e-05	-0.00209641	0

Time = 20

smoothSolver:  Solving for Ux, Initial residual = 0.0233736, Final residual = 0.000287334, No Iterations 1
smoothSolver:  Solving for Uy, Initial residual = 0.0150644, Final residual = 0.000182892, No Iterations 1
smoothSolver:  Solving for Uz, Initial residual = 0.0210325, Final residual = 0.000249045, No Iterations 1
GAMG:  Solving for p, Initial residual = 0.32542, Final residual = 0.032199, No Iterations 2
time step continuity errors : sum local = 0.000301817, global = -5.23298e-05, cumulative = -5.41462e-05
smoothSolver:  Solving for omega, Initial residual = 0.0261048, Final residual = 0.000240512, No Iterations 1
smoothSolver:  Solving for k, Initial residual = 0.0327176, Final residual = 0.000299915, No Iterations 1
smoothSolver:  Solving for ReThetat, Initial residual = 0.0481101, Final residual = 1.98453e-08, No Iterations 1
smoothSolver:  Solving for gammaInt, Initial residual = 0.0873466, Final residual = 0.0796389, No Iterations 100
ExecutionTime = 49.94 s  ClockTime = 51 s

forceCoeffs forceCoeffs write:
    Coefficient	Total	Pressure	Viscous	Internal
    Cd:	-0.0777368	-0.00994221	-0.0677946	0
    Cd(f):	-0.0388698	-0.00497265	-0.0338972	0
    Cd(r):	-0.0388669	-0.00496956	-0.0338974	0
    Cl:	-0.00971017	1.65748e-06	-0.00971182	0
    Cl(f):	-0.0048575	-1.35978e-06	-0.00485614	0
    Cl(r):	-0.00485267	3.01727e-06	-0.00485569	0
    CmPitch:	-2.41351e-06	-2.18853e-06	-2.24986e-07	0
    CmRoll:	-1.44749e-06	-1.54286e-06	9.5368e-08	0
    CmYaw:	3.59525e-05	3.37079e-05	2.24457e-06	0
    Cs:	-0.00407627	-2.30869e-06	-0.00407396	0
    Cs(f):	-0.00200218	3.25536e-05	-0.00203474	0
    Cs(r):	-0.00207409	-3.48622e-05	-0.00203923	0

Time = 21

smoothSolver:  Solving for Ux, Initial residual = 0.0219353, Final residual = 0.000269233, No Iterations 1
smoothSolver:  Solving for Uy, Initial residual = 0.0128532, Final residual = 0.000154491, No Iterations 1
smoothSolver:  Solving for Uz, Initial residual = 0.018934, Final residual = 0.000222439, No Iterations 1
GAMG:  Solving for p, Initial residual = 0.207187, Final residual = 0.0099182, No Iterations 3
time step continuity errors : sum local = 0.000134017, global = -1.55313e-05, cumulative = -6.96775e-05
smoothSolver:  Solving for omega, Initial residual = 0.0246695, Final residual = 0.000228261, No Iterations 1
smoothSolver:  Solving for k, Initial residual = 0.0308129, Final residual = 0.000283722, No Iterations 1
smoothSolver:  Solving for ReThetat, Initial residual = 0.0442858, Final residual = 1.80835e-08, No Iterations 1
smoothSolver:  Solving for gammaInt, Initial residual = 0.085248, Final residual = 0.0776652, No Iterations 100
ExecutionTime = 52.57 s  ClockTime = 54 s

forceCoeffs forceCoeffs write:
    Coefficient	Total	Pressure	Viscous	Internal
    Cd:	-0.408749	-0.00988064	-0.398869	0
    Cd(f):	-0.204373	-0.00493835	-0.199434	0
    Cd(r):	-0.204377	-0.00494229	-0.199434	0
    Cl:	-0.0046219	1.03171e-06	-0.00462294	0
    Cl(f):	-0.00231406	-2.77277e-06	-0.00231129	0
    Cl(r):	-0.00230784	3.80448e-06	-0.00231164	0
    CmPitch:	-3.1121e-06	-3.28863e-06	1.76528e-07	0
    CmRoll:	2.01196e-06	1.96583e-06	4.61348e-08	0
    CmYaw:	2.46388e-05	2.24817e-05	2.1571e-06	0
    Cs:	-0.000174501	-2.36866e-06	-0.000172132	0
    Cs(f):	-6.26115e-05	2.12974e-05	-8.3909e-05	0
    Cs(r):	-0.000111889	-2.36661e-05	-8.82232e-05	0

Time = 22

smoothSolver:  Solving for Ux, Initial residual = 0.0167163, Final residual = 0.000201449, No Iterations 1
smoothSolver:  Solving for Uy, Initial residual = 0.00922698, Final residual = 0.000109595, No Iterations 1
smoothSolver:  Solving for Uz, Initial residual = 0.01468, Final residual = 0.000169529, No Iterations 1
GAMG:  Solving for p, Initial residual = 0.142277, Final residual = 0.00690072, No Iterations 3
time step continuity errors : sum local = 0.000120513, global = -4.07219e-06, cumulative = -7.37497e-05
smoothSolver:  Solving for omega, Initial residual = 0.023377, Final residual = 0.000217209, No Iterations 1
smoothSolver:  Solving for k, Initial residual = 0.0290963, Final residual = 0.000269049, No Iterations 1
smoothSolver:  Solving for ReThetat, Initial residual = 0.0410224, Final residual = 1.66177e-08, No Iterations 1
smoothSolver:  Solving for gammaInt, Initial residual = 0.0829278, Final residual = 0.0758367, No Iterations 100
ExecutionTime = 54.8 s  ClockTime = 56 s

forceCoeffs forceCoeffs write:
    Coefficient	Total	Pressure	Viscous	Internal
    Cd:	-0.566517	-0.00983881	-0.556678	0
    Cd(f):	-0.283254	-0.00491505	-0.278339	0
    Cd(r):	-0.283263	-0.00492376	-0.278339	0
    Cl:	0.000583312	9.00456e-07	0.000582411	0
    Cl(f):	0.000289235	-2.59104e-06	0.000291826	0
    Cl(r):	0.000294077	3.4915e-06	0.000290585	0
    CmPitch:	-2.42095e-06	-3.04127e-06	6.20318e-07	0
    CmRoll:	4.33444e-06	4.35388e-06	-1.94389e-08	0
    CmYaw:	8.68117e-06	7.28139e-06	1.39978e-06	0
    Cs:	0.00323911	-1.8384e-06	0.00324095	0
    Cs(f):	0.00162824	6.36219e-06	0.00162188	0
    Cs(r):	0.00161088	-8.20059e-06	0.00161908	0

Time = 23

smoothSolver:  Solving for Ux, Initial residual = 0.0145095, Final residual = 0.000173518, No Iterations 1
smoothSolver:  Solving for Uy, Initial residual = 0.00839925, Final residual = 9.92759e-05, No Iterations 1
smoothSolver:  Solving for Uz, Initial residual = 0.0132748, Final residual = 0.000154773, No Iterations 1
GAMG:  Solving for p, Initial residual = 0.133936, Final residual = 0.00676112, No Iterations 3
time step continuity errors : sum local = 0.000111008, global = 5.5097e-06, cumulative = -6.824e-05
smoothSolver:  Solving for omega, Initial residual = 0.0221999, Final residual = 0.00020712, No Iterations 1
smoothSolver:  Solving for k, Initial residual = 0.0275377, Final residual = 0.0002557, No Iterations 1
smoothSolver:  Solving for ReThetat, Initial residual = 0.0382107, Final residual = 1.53904e-08, No Iterations 1
smoothSolver:  Solving for gammaInt, Initial residual = 0.0812592, Final residual = 0.0740463, No Iterations 100
ExecutionTime = 57.02 s  ClockTime = 58 s

forceCoeffs forceCoeffs write:
    Coefficient	Total	Pressure	Viscous	Internal
    Cd:	-0.559728	-0.0097843	-0.549944	0
    Cd(f):	-0.279859	-0.00488707	-0.274972	0
    Cd(r):	-0.279869	-0.00489723	-0.274972	0
    Cl:	0.00410907	1.17091e-06	0.0041079	0
    Cl(f):	0.00205366	-1.2393e-06	0.0020549	0
    Cl(r):	0.00205541	2.41021e-06	0.002053	0
    CmPitch:	-8.7263e-07	-1.82476e-06	9.52127e-07	0
    CmRoll:	5.00215e-06	5.07701e-06	-7.48635e-08	0
    CmYaw:	-4.97644e-06	-5.61336e-06	6.36918e-07	0
    Cs:	0.00502795	-1.06945e-06	0.00502902	0
    Cs(f):	0.002509	-6.14809e-06	0.00251515	0
    Cs(r):	0.00251895	5.07863e-06	0.00251387	0

Time = 24

smoothSolver:  Solving for Ux, Initial residual = 0.0146533, Final residual = 0.000176362, No Iterations 1
smoothSolver:  Solving for Uy, Initial residual = 0.0089181, Final residual = 0.000106457, No Iterations 1
smoothSolver:  Solving for Uz, Initial residual = 0.0133797, Final residual = 0.000158061, No Iterations 1
GAMG:  Solving for p, Initial residual = 0.16873, Final residual = 0.00822817, No Iterations 3
time step continuity errors : sum local = 9.61911e-05, global = 1.47377e-05, cumulative = -5.35022e-05
smoothSolver:  Solving for omega, Initial residual = 0.0211248, Final residual = 0.000197861, No Iterations 1
smoothSolver:  Solving for k, Initial residual = 0.0261265, Final residual = 0.000243561, No Iterations 1
smoothSolver:  Solving for ReThetat, Initial residual = 0.0357679, Final residual = 1.4356e-08, No Iterations 1
smoothSolver:  Solving for gammaInt, Initial residual = 0.0794366, Final residual = 0.0718907, No Iterations 100
ExecutionTime = 59.27 s  ClockTime = 60 s

forceCoeffs forceCoeffs write:
    Coefficient	Total	Pressure	Viscous	Internal
    Cd:	-0.451137	-0.00970347	-0.441433	0
    Cd(f):	-0.225564	-0.00484746	-0.220717	0
    Cd(r):	-0.225572	-0.00485601	-0.220716	0
    Cl:	0.00530444	1.6253e-06	0.00530281	0
    Cl(f):	0.002653	5.1056e-07	0.00265249	0
    Cl(r):	0.00265144	1.11474e-06	0.00265032	0
    CmPitch:	7.82473e-07	-3.02088e-07	1.08456e-06	0
    CmRoll:	4.1764e-06	4.27781e-06	-1.01408e-07	0
    CmYaw:	-1.28861e-05	-1.31103e-05	2.24175e-07	0
    Cs:	0.00505106	-4.13163e-07	0.00505148	0
    Cs(f):	0.00251265	-1.33168e-05	0.00252596	0
    Cs(r):	0.00253842	1.29037e-05	0.00252551	0

Time = 25

smoothSolver:  Solving for Ux, Initial residual = 0.0143097, Final residual = 0.000172472, No Iterations 1
smoothSolver:  Solving for Uy, Initial residual = 0.00874051, Final residual = 0.000104216, No Iterations 1
smoothSolver:  Solving for Uz, Initial residual = 0.0127297, Final residual = 0.000150693, No Iterations 1
GAMG:  Solving for p, Initial residual = 0.181709, Final residual = 0.0165132, No Iterations 2
time step continuity errors : sum local = 0.000158467, global = 3.12085e-05, cumulative = -2.22937e-05
smoothSolver:  Solving for omega, Initial residual = 0.020139, Final residual = 0.000189353, No Iterations 1
smoothSolver:  Solving for k, Initial residual = 0.0248345, Final residual = 0.000232411, No Iterations 1
smoothSolver:  Solving for ReThetat, Initial residual = 0.0336279, Final residual = 1.34779e-08, No Iterations 1
smoothSolver:  Solving for gammaInt, Initial residual = 0.0776362, Final residual = 0.0703568, No Iterations 100
ExecutionTime = 61.52 s  ClockTime = 63 s

forceCoeffs forceCoeffs write:
    Coefficient	Total	Pressure	Viscous	Internal
    Cd:	-0.324207	-0.00959928	-0.314607	0
    Cd(f):	-0.162101	-0.00479736	-0.157304	0
    Cd(r):	-0.162106	-0.00480192	-0.157304	0
    Cl:	0.00445996	2.04335e-06	0.00445792	0
    Cl(f):	0.00223215	2.14918e-06	0.00223	0
    Cl(r):	0.00222781	-1.05837e-07	0.00222792	0
    CmPitch:	2.1664e-06	1.12751e-06	1.03889e-06	0
    CmRoll:	2.18491e-06	2.27777e-06	-9.2869e-08	0
    CmYaw:	-1.51721e-05	-1.54152e-05	2.43161e-07	0
    Cs:	0.00427082	-2.93145e-09	0.00427082	0
    Cs(f):	0.00212024	-1.54167e-05	0.00213565	0
    Cs(r):	0.00215058	1.54138e-05	0.00213517	0

Time = 26

smoothSolver:  Solving for Ux, Initial residual = 0.0129233, Final residual = 0.000154964, No Iterations 1
smoothSolver:  Solving for Uy, Initial residual = 0.00776293, Final residual = 9.1655e-05, No Iterations 1
smoothSolver:  Solving for Uz, Initial residual = 0.0112284, Final residual = 0.000131246, No Iterations 1
GAMG:  Solving for p, Initial residual = 0.11492, Final residual = 0.0112231, No Iterations 2
time step continuity errors : sum local = 0.000151621, global = 1.37814e-05, cumulative = -8.5123e-06
smoothSolver:  Solving for omega, Initial residual = 0.019232, Final residual = 0.000181503, No Iterations 1
smoothSolver:  Solving for k, Initial residual = 0.0236471, Final residual = 0.000222137, No Iterations 1
smoothSolver:  Solving for ReThetat, Initial residual = 0.0317347, Final residual = 1.27242e-08, No Iterations 1
smoothSolver:  Solving for gammaInt, Initial residual = 0.076268, Final residual = 0.0692666, No Iterations 100
ExecutionTime = 64.08 s  ClockTime = 65 s

forceCoeffs forceCoeffs write:
    Coefficient	Total	Pressure	Viscous	Internal
    Cd:	-0.207263	-0.00947926	-0.197783	0
    Cd(f):	-0.103631	-0.00473956	-0.0988917	0
    Cd(r):	-0.103631	-0.0047397	-0.0988916	0
    Cl:	0.0027371	2.3295e-06	0.00273477	0
    Cl(f):	0.00137127	2.99968e-06	0.00136827	0
    Cl(r):	0.00136583	-6.7018e-07	0.0013665	0
    CmPitch:	2.71588e-06	1.83493e-06	8.80948e-07	0
    CmRoll:	9.04217e-09	6.99874e-08	-6.09453e-08	0
    CmYaw:	-1.19989e-05	-1.26336e-05	6.34746e-07	0
    Cs:	0.002022	-5.59088e-09	0.00202201	0
    Cs(f):	0.000999001	-1.26364e-05	0.00101164	0
    Cs(r):	0.001023	1.26308e-05	0.00101037	0

Time = 27

smoothSolver:  Solving for Ux, Initial residual = 0.0103734, Final residual = 0.000122597, No Iterations 1
smoothSolver:  Solving for Uy, Initial residual = 0.0059981, Final residual = 6.9143e-05, No Iterations 1
smoothSolver:  Solving for Uz, Initial residual = 0.00890136, Final residual = 0.000101091, No Iterations 1
GAMG:  Solving for p, Initial residual = 0.0797238, Final residual = 0.00321349, No Iterations 3
time step continuity errors : sum local = 5.52746e-05, global = 1.01399e-05, cumulative = 1.62764e-06
smoothSolver:  Solving for omega, Initial residual = 0.018401, Final residual = 0.00017425, No Iterations 1
smoothSolver:  Solving for k, Initial residual = 0.0225544, Final residual = 0.000212674, No Iterations 1
smoothSolver:  Solving for ReThetat, Initial residual = 0.030052, Final residual = 1.20717e-08, No Iterations 1
smoothSolver:  Solving for gammaInt, Initial residual = 0.0746063, Final residual = 0.0672947, No Iterations 100
ExecutionTime = 66.82 s  ClockTime = 68 s

forceCoeffs forceCoeffs write:
    Coefficient	Total	Pressure	Viscous	Internal
    Cd:	-0.130718	-0.00935295	-0.121365	0
    Cd(f):	-0.0653604	-0.0046778	-0.0606826	0
    Cd(r):	-0.0653577	-0.00467515	-0.0606825	0
    Cl:	0.000198868	2.40515e-06	0.000196463	0
    Cl(f):	0.000101656	2.71942e-06	9.89361e-05	0
    Cl(r):	9.7213e-05	-3.14271e-07	9.75272e-05	0
    CmPitch:	2.22128e-06	1.51684e-06	7.04435e-07	0
    CmRoll:	-1.34799e-06	-1.32421e-06	-2.37841e-08	0
    CmYaw:	-3.80554e-06	-5.15685e-06	1.35132e-06	0
    Cs:	-0.000817601	-4.86358e-07	-0.000817115	0
    Cs(f):	-0.000412606	-5.40003e-06	-0.000407206	0
    Cs(r):	-0.000404995	4.91367e-06	-0.000409909	0

Time = 28

smoothSolver:  Solving for Ux, Initial residual = 0.00781576, Final residual = 9.0895e-05, No Iterations 1
smoothSolver:  Solving for Uy, Initial residual = 0.00443579, Final residual = 4.92543e-05, No Iterations 1
smoothSolver:  Solving for Uz, Initial residual = 0.00694247, Final residual = 7.68807e-05, No Iterations 1
GAMG:  Solving for p, Initial residual = 0.0631422, Final residual = 0.0028969, No Iterations 3
time step continuity errors : sum local = 5.5549e-05, global = 1.58547e-06, cumulative = 3.21311e-06
smoothSolver:  Solving for omega, Initial residual = 0.0176304, Final residual = 0.000167489, No Iterations 1
smoothSolver:  Solving for k, Initial residual = 0.0215479, Final residual = 0.000203945, No Iterations 1
smoothSolver:  Solving for ReThetat, Initial residual = 0.0285456, Final residual = 1.14982e-08, No Iterations 1
smoothSolver:  Solving for gammaInt, Initial residual = 0.0735209, Final residual = 0.0661983, No Iterations 100
ExecutionTime = 70.02 s  ClockTime = 71 s

forceCoeffs forceCoeffs write:
    Coefficient	Total	Pressure	Viscous	Internal
    Cd:	-0.117826	-0.00923262	-0.108593	0
    Cd(f):	-0.0589149	-0.00461829	-0.0542966	0
    Cd(r):	-0.0589109	-0.00461433	-0.0542966	0
    Cl:	-0.00170308	2.28068e-06	-0.00170536	0
    Cl(f):	-0.000850141	1.96712e-06	-0.000852108	0
    Cl(r):	-0.000852942	3.13556e-07	-0.000853255	0
    CmPitch:	1.40039e-06	8.26784e-07	5.7361e-07	0
    CmRoll:	-1.97682e-06	-1.97955e-06	2.72203e-09	0
    CmYaw:	3.75915e-06	1.55667e-06	2.20249e-06	0
    Cs:	-0.00240345	-1.23743e-06	-0.00240221	0
    Cs(f):	-0.00119797	9.37954e-07	-0.0011989	0
    Cs(r):	-0.00120548	-2.17538e-06	-0.00120331	0

Time = 29

smoothSolver:  Solving for Ux, Initial residual = 0.0073112, Final residual = 8.53942e-05, No Iterations 1
smoothSolver:  Solving for Uy, Initial residual = 0.00438922, Final residual = 4.97523e-05, No Iterations 1
smoothSolver:  Solving for Uz, Initial residual = 0.00671292, Final residual = 7.52205e-05, No Iterations 1
GAMG:  Solving for p, Initial residual = 0.0609787, Final residual = 0.00310057, No Iterations 3
time step continuity errors : sum local = 5.60037e-05, global = -5.92313e-06, cumulative = -2.71002e-06
smoothSolver:  Solving for omega, Initial residual = 0.0169108, Final residual = 0.000161181, No Iterations 1
smoothSolver:  Solving for k, Initial residual = 0.0206248, Final residual = 0.000195877, No Iterations 1
smoothSolver:  Solving for ReThetat, Initial residual = 0.0271882, Final residual = 1.09881e-08, No Iterations 1
smoothSolver:  Solving for gammaInt, Initial residual = 0.0721673, Final residual = 0.0647103, No Iterations 100
ExecutionTime = 72.98 s  ClockTime = 74 s

forceCoeffs forceCoeffs write:
    Coefficient	Total	Pressure	Viscous	Internal
    Cd:	-0.152418	-0.00912618	-0.143292	0
    Cd(f):	-0.0762111	-0.00456497	-0.0716461	0
    Cd(r):	-0.0762073	-0.00456121	-0.0716461	0
    Cl:	-0.00254263	2.03547e-06	-0.00254467	0
    Cl(f):	-0.00127077	1.01614e-06	-0.00127179	0
    Cl(r):	-0.00127186	1.01933e-06	-0.00127288	0
    CmPitch:	5.4282e-07	-1.59186e-09	5.44411e-07	0
    CmRoll:	-1.87121e-06	-1.88281e-06	1.16003e-08	0
    CmYaw:	8.70322e-06	5.83065e-06	2.87257e-06	0
    Cs:	-0.00262877	-1.96766e-06	-0.0026268	0
    Cs(f):	-0.00130568	4.84682e-06	-0.00131053	0
    Cs(r):	-0.00132309	-6.81448e-06	-0.00131627	0

Time = 30

smoothSolver:  Solving for Ux, Initial residual = 0.00711106, Final residual = 8.35866e-05, No Iterations 1
smoothSolver:  Solving for Uy, Initial residual = 0.00432299, Final residual = 4.93397e-05, No Iterations 1
smoothSolver:  Solving for Uz, Initial residual = 0.00662241, Final residual = 7.50839e-05, No Iterations 1
GAMG:  Solving for p, Initial residual = 0.0659416, Final residual = 0.00640483, No Iterations 2
time step continuity errors : sum local = 9.76122e-05, global = -2.20288e-05, cumulative = -2.47388e-05
smoothSolver:  Solving for omega, Initial residual = 0.0162385, Final residual = 0.000155294, No Iterations 1
smoothSolver:  Solving for k, Initial residual = 0.0197694, Final residual = 0.000188372, No Iterations 1
smoothSolver:  Solving for ReThetat, Initial residual = 0.0259573, Final residual = 1.05295e-08, No Iterations 1
smoothSolver:  Solving for gammaInt, Initial residual = 0.0708835, Final residual = 0.0639112, No Iterations 100
ExecutionTime = 76.11 s  ClockTime = 77 s

forceCoeffs forceCoeffs write:
    Coefficient	Total	Pressure	Viscous	Internal
    Cd:	-0.202505	-0.00903408	-0.19347	0
    Cd(f):	-0.101253	-0.00451801	-0.0967352	0
    Cd(r):	-0.101251	-0.00451607	-0.0967352	0
    Cl:	-0.00233873	1.77489e-06	-0.0023405	0
    Cl(f):	-0.00116985	-2.14802e-07	-0.00116964	0
    Cl(r):	-0.00116887	1.9897e-06	-0.00117086	0
    CmPitch:	-4.90197e-07	-1.10225e-06	6.12052e-07	0
    CmRoll:	-9.66086e-07	-9.70582e-07	4.49612e-09	0
    CmYaw:	1.11839e-05	7.89365e-06	3.29026e-06	0
    Cs:	-0.00223924	-2.56475e-06	-0.00223668	0
    Cs(f):	-0.00110844	6.61127e-06	-0.00111505	0
    Cs(r):	-0.0011308	-9.17603e-06	-0.00112163	0

Time = 31

smoothSolver:  Solving for Ux, Initial residual = 0.00655207, Final residual = 7.67696e-05, No Iterations 1
smoothSolver:  Solving for Uy, Initial residual = 0.00398587, Final residual = 4.52168e-05, No Iterations 1
smoothSolver:  Solving for Uz, Initial residual = 0.00619455, Final residual = 7.01093e-05, No Iterations 1
GAMG:  Solving for p, Initial residual = 0.0714955, Final residual = 0.00322077, No Iterations 3
time step continuity errors : sum local = 4.14065e-05, global = -1.03058e-05, cumulative = -3.50446e-05
smoothSolver:  Solving for omega, Initial residual = 0.0156106, Final residual = 0.000149812, No Iterations 1
smoothSolver:  Solving for k, Initial residual = 0.0189731, Final residual = 0.000181383, No Iterations 1
smoothSolver:  Solving for ReThetat, Initial residual = 0.0248356, Final residual = 1.01135e-08, No Iterations 1
smoothSolver:  Solving for gammaInt, Initial residual = 0.0696934, Final residual = 0.062844, No Iterations 100
ExecutionTime = 78.89 s  ClockTime = 80 s

forceCoeffs forceCoeffs write:
    Coefficient	Total	Pressure	Viscous	Internal
    Cd:	-0.266003	-0.00895573	-0.257047	0
    Cd(f):	-0.133002	-0.00447807	-0.128523	0
    Cd(r):	-0.133001	-0.00447765	-0.128523	0
    Cl:	-0.00166034	1.53687e-06	-0.00166188	0
    Cl(f):	-0.000830454	-2.50804e-07	-0.000830203	0
    Cl(r):	-0.00082989	1.78768e-06	-0.000831677	0
    CmPitch:	-2.8219e-07	-1.01924e-06	7.37049e-07	0
    CmRoll:	-2.21251e-07	-2.1057e-07	-1.06815e-08	0
    CmYaw:	9.11247e-06	5.61701e-06	3.49545e-06	0
    Cs:	-0.000245091	-2.85997e-06	-0.000242231	0
    Cs(f):	-0.000113433	4.18703e-06	-0.00011762	0
    Cs(r):	-0.000131658	-7.04699e-06	-0.000124611	0

Time = 32

smoothSolver:  Solving for Ux, Initial residual = 0.00571091, Final residual = 6.63474e-05, No Iterations 1
smoothSolver:  Solving for Uy, Initial residual = 0.00345792, Final residual = 3.88591e-05, No Iterations 1
smoothSolver:  Solving for Uz, Initial residual = 0.00546809, Final residual = 6.17833e-05, No Iterations 1
GAMG:  Solving for p, Initial residual = 0.0895289, Final residual = 0.00377969, No Iterations 3
time step continuity errors : sum local = 3.40521e-05, global = -7.73678e-06, cumulative = -4.27814e-05
smoothSolver:  Solving for omega, Initial residual = 0.015028, Final residual = 0.000144769, No Iterations 1
smoothSolver:  Solving for k, Initial residual = 0.018229, Final residual = 0.000174836, No Iterations 1
smoothSolver:  Solving for ReThetat, Initial residual = 0.0238083, Final residual = 9.73479e-09, No Iterations 1
smoothSolver:  Solving for gammaInt, Initial residual = 0.0686186, Final residual = 0.0617176, No Iterations 100
ExecutionTime = 81.38 s  ClockTime = 83 s

forceCoeffs forceCoeffs write:
    Coefficient	Total	Pressure	Viscous	Internal
    Cd:	-0.313087	-0.00888723	-0.304199	0
    Cd(f):	-0.156543	-0.00444319	-0.1521	0
    Cd(r):	-0.156544	-0.00444405	-0.1521	0
    Cl:	-0.000731106	1.35657e-06	-0.000732463	0
    Cl(f):	-0.000365332	2.08883e-08	-0.000365352	0
    Cl(r):	-0.000365774	1.33568e-06	-0.00036711	0
    CmPitch:	2.21449e-07	-6.57398e-07	8.78847e-07	0
    CmRoll:	4.03418e-07	4.29236e-07	-2.5818e-08	0
    CmYaw:	5.49223e-06	2.02763e-06	3.4646e-06	0
    Cs:	0.00153886	-2.80175e-06	0.00154166	0
    Cs(f):	0.000774921	6.26751e-07	0.000774294	0
    Cs(r):	0.000763936	-3.4285e-06	0.000767365	0

Time = 33

smoothSolver:  Solving for Ux, Initial residual = 0.00570135, Final residual = 6.68463e-05, No Iterations 1
smoothSolver:  Solving for Uy, Initial residual = 0.00348618, Final residual = 3.93952e-05, No Iterations 1
smoothSolver:  Solving for Uz, Initial residual = 0.00544178, Final residual = 6.25289e-05, No Iterations 1
GAMG:  Solving for p, Initial residual = 0.0941363, Final residual = 0.00922466, No Iterations 2
time step continuity errors : sum local = 7.15036e-05, global = -1.53068e-06, cumulative = -4.43121e-05
smoothSolver:  Solving for omega, Initial residual = 0.0144858, Final residual = 0.000140027, No Iterations 1
smoothSolver:  Solving for k, Initial residual = 0.0175329, Final residual = 0.000168727, No Iterations 1
smoothSolver:  Solving for ReThetat, Initial residual = 0.0228639, Final residual = 9.3892e-09, No Iterations 1
smoothSolver:  Solving for gammaInt, Initial residual = 0.0678378, Final residual = 0.0603985, No Iterations 100
ExecutionTime = 83.78 s  ClockTime = 85 s

forceCoeffs forceCoeffs write:
    Coefficient	Total	Pressure	Viscous	Internal
    Cd:	-0.332969	-0.00882225	-0.324146	0
    Cd(f):	-0.166483	-0.00441017	-0.162073	0
    Cd(r):	-0.166485	-0.00441208	-0.162073	0
    Cl:	-0.000160133	1.21278e-06	-0.000161346	0
    Cl(f):	-7.96631e-05	1.09968e-08	-7.96741e-05	0
    Cl(r):	-8.04702e-05	1.20178e-06	-8.16719e-05	0
    CmPitch:	4.03514e-07	-5.95391e-07	9.98905e-07	0
    CmRoll:	9.19342e-07	9.55623e-07	-3.6281e-08	0
    CmYaw:	2.84277e-06	-5.42754e-07	3.38553e-06	0
    Cs:	0.00237687	-2.57896e-06	0.00237945	0
    Cs(f):	0.00119128	-1.83223e-06	0.00119311	0
    Cs(r):	0.00118559	-7.46727e-07	0.00118634	0

Time = 34

smoothSolver:  Solving for Ux, Initial residual = 0.0059429, Final residual = 7.03311e-05, No Iterations 1
smoothSolver:  Solving for Uy, Initial residual = 0.0035808, Final residual = 4.09399e-05, No Iterations 1
smoothSolver:  Solving for Uz, Initial residual = 0.00554862, Final residual = 6.43076e-05, No Iterations 1
GAMG:  Solving for p, Initial residual = 0.087788, Final residual = 0.0085065, No Iterations 2
time step continuity errors : sum local = 6.73999e-05, global = 4.63513e-06, cumulative = -3.96769e-05
smoothSolver:  Solving for omega, Initial residual = 0.0139772, Final residual = 0.000135545, No Iterations 1
smoothSolver:  Solving for k, Initial residual = 0.0168858, Final residual = 0.000163097, No Iterations 1
smoothSolver:  Solving for ReThetat, Initial residual = 0.0219918, Final residual = 9.07329e-09, No Iterations 1
smoothSolver:  Solving for gammaInt, Initial residual = 0.0660922, Final residual = 0.0594074, No Iterations 100
ExecutionTime = 86.19 s  ClockTime = 88 s

forceCoeffs forceCoeffs write:
    Coefficient	Total	Pressure	Viscous	Internal
    Cd:	-0.335867	-0.00875756	-0.32711	0
    Cd(f):	-0.167933	-0.00437779	-0.163555	0
    Cd(r):	-0.167935	-0.00437976	-0.163555	0
    Cl:	0.000222809	1.09812e-06	0.000221711	0
    Cl(f):	0.000112271	3.49413e-07	0.000111922	0
    Cl(r):	0.000110538	7.4871e-07	0.000109789	0
    CmPitch:	8.66707e-07	-1.99649e-07	1.06636e-06	0
    CmRoll:	9.44054e-07	9.83616e-07	-3.95613e-08	0
    CmYaw:	5.76938e-07	-2.79208e-06	3.36902e-06	0
    Cs:	0.00259752	-2.33043e-06	0.00259985	0
    Cs(f):	0.00129934	-3.95729e-06	0.0013033	0
    Cs(r):	0.00129818	1.62687e-06	0.00129656	0

Time = 35

smoothSolver:  Solving for Ux, Initial residual = 0.00593521, Final residual = 7.0455e-05, No Iterations 1
smoothSolver:  Solving for Uy, Initial residual = 0.00354761, Final residual = 4.07156e-05, No Iterations 1
smoothSolver:  Solving for Uz, Initial residual = 0.00543135, Final residual = 6.30538e-05, No Iterations 1
GAMG:  Solving for p, Initial residual = 0.0861856, Final residual = 0.00785128, No Iterations 2
time step continuity errors : sum local = 5.96689e-05, global = 9.14639e-06, cumulative = -3.05306e-05
smoothSolver:  Solving for omega, Initial residual = 0.0134976, Final residual = 0.000131284, No Iterations 1
smoothSolver:  Solving for k, Initial residual = 0.0162811, Final residual = 0.000157784, No Iterations 1
smoothSolver:  Solving for ReThetat, Initial residual = 0.0211837, Final residual = 8.78335e-09, No Iterations 1
smoothSolver:  Solving for gammaInt, Initial residual = 0.0657699, Final residual = 0.0586001, No Iterations 100
ExecutionTime = 88.57 s  ClockTime = 90 s

forceCoeffs forceCoeffs write:
    Coefficient	Total	Pressure	Viscous	Internal
    Cd:	-0.328813	-0.00869237	-0.320121	0
    Cd(f):	-0.164406	-0.00434548	-0.16006	0
    Cd(r):	-0.164407	-0.00434689	-0.16006	0
    Cl:	0.000418375	1.01847e-06	0.000417356	0
    Cl(f):	0.000210498	7.35697e-07	0.000209762	0
    Cl(r):	0.000207877	2.82774e-07	0.000207594	0
    CmPitch:	1.31028e-06	2.26462e-07	1.08382e-06	0
    CmRoll:	6.67677e-07	7.02727e-07	-3.50503e-08	0
    CmYaw:	-7.97637e-07	-4.18368e-06	3.38604e-06	0
    Cs:	0.00220058	-2.11542e-06	0.0022027	0
    Cs(f):	0.00109949	-5.24139e-06	0.00110474	0
    Cs(r):	0.00110109	3.12597e-06	0.00109796	0

Time = 36

smoothSolver:  Solving for Ux, Initial residual = 0.00579429, Final residual = 6.90344e-05, No Iterations 1
smoothSolver:  Solving for Uy, Initial residual = 0.00342124, Final residual = 3.90201e-05, No Iterations 1
smoothSolver:  Solving for Uz, Initial residual = 0.00518476, Final residual = 6.04863e-05, No Iterations 1
GAMG:  Solving for p, Initial residual = 0.0659463, Final residual = 0.00594775, No Iterations 2
time step continuity errors : sum local = 5.37518e-05, global = 7.80271e-06, cumulative = -2.27278e-05
smoothSolver:  Solving for omega, Initial residual = 0.0130469, Final residual = 0.000127237, No Iterations 1
smoothSolver:  Solving for k, Initial residual = 0.0157125, Final residual = 0.000152735, No Iterations 1
smoothSolver:  Solving for ReThetat, Initial residual = 0.020426, Final residual = 8.51384e-09, No Iterations 1
smoothSolver:  Solving for gammaInt, Initial residual = 0.0644143, Final residual = 0.0575198, No Iterations 100
ExecutionTime = 90.75 s  ClockTime = 92 s

forceCoeffs forceCoeffs write:
    Coefficient	Total	Pressure	Viscous	Internal
    Cd:	-0.318124	-0.00862693	-0.309497	0
    Cd(f):	-0.159062	-0.00431319	-0.154748	0
    Cd(r):	-0.159062	-0.00431374	-0.154748	0
    Cl:	0.000442724	9.71899e-07	0.000441752	0
    Cl(f):	0.000222938	1.00057e-06	0.000221937	0
    Cl(r):	0.000219786	-2.86704e-08	0.000219814	0
    CmPitch:	1.57628e-06	5.1462e-07	1.06166e-06	0
    CmRoll:	2.52958e-07	2.78206e-07	-2.52474e-08	0
    CmYaw:	-9.04371e-07	-4.36618e-06	3.46181e-06	0
    Cs:	0.00139659	-2.0124e-06	0.00139861	0
    Cs(f):	0.000697392	-5.37238e-06	0.000702765	0
    Cs(r):	0.000699201	3.35998e-06	0.000695841	0

Time = 37

smoothSolver:  Solving for Ux, Initial residual = 0.00555599, Final residual = 6.60624e-05, No Iterations 1
smoothSolver:  Solving for Uy, Initial residual = 0.0031716, Final residual = 3.58619e-05, No Iterations 1
smoothSolver:  Solving for Uz, Initial residual = 0.00488732, Final residual = 5.70402e-05, No Iterations 1
GAMG:  Solving for p, Initial residual = 0.047899, Final residual = 0.00459928, No Iterations 2
time step continuity errors : sum local = 5.13322e-05, global = 6.03517e-06, cumulative = -1.66927e-05
smoothSolver:  Solving for omega, Initial residual = 0.0126236, Final residual = 0.000123388, No Iterations 1
smoothSolver:  Solving for k, Initial residual = 0.015175, Final residual = 0.000147931, No Iterations 1
smoothSolver:  Solving for ReThetat, Initial residual = 0.0197116, Final residual = 8.26142e-09, No Iterations 1
smoothSolver:  Solving for gammaInt, Initial residual = 0.0632744, Final residual = 0.0567772, No Iterations 100
ExecutionTime = 92.91 s  ClockTime = 94 s

forceCoeffs forceCoeffs write:
    Coefficient	Total	Pressure	Viscous	Internal
    Cd:	-0.309709	-0.00856192	-0.301147	0
    Cd(f):	-0.154855	-0.00428107	-0.150574	0
    Cd(r):	-0.154854	-0.00428085	-0.150574	0
    Cl:	0.000305502	9.48607e-07	0.000304553	0
    Cl(f):	0.000154355	1.05389e-06	0.000153301	0
    Cl(r):	0.000151147	-1.05281e-07	0.000151253	0
    CmPitch:	1.60364e-06	5.79584e-07	1.02405e-06	0
    CmRoll:	-1.22534e-07	-1.09301e-07	-1.32332e-08	0
    CmYaw:	-8.98975e-09	-3.60142e-06	3.59243e-06	0
    Cs:	0.000526594	-2.04511e-06	0.000528639	0
    Cs(f):	0.000263288	-4.62397e-06	0.000267912	0
    Cs(r):	0.000263306	2.57886e-06	0.000260727	0

Time = 38

smoothSolver:  Solving for Ux, Initial residual = 0.00517128, Final residual = 6.10664e-05, No Iterations 1
smoothSolver:  Solving for Uy, Initial residual = 0.00287272, Final residual = 3.20106e-05, No Iterations 1
smoothSolver:  Solving for Uz, Initial residual = 0.00454338, Final residual = 5.27966e-05, No Iterations 1
GAMG:  Solving for p, Initial residual = 0.0378073, Final residual = 0.00361924, No Iterations 2
time step continuity errors : sum local = 4.69653e-05, global = 6.10063e-06, cumulative = -1.0592e-05
smoothSolver:  Solving for omega, Initial residual = 0.0122258, Final residual = 0.000119755, No Iterations 1
smoothSolver:  Solving for k, Initial residual = 0.0146692, Final residual = 0.000143382, No Iterations 1
smoothSolver:  Solving for ReThetat, Initial residual = 0.0190453, Final residual = 8.02676e-09, No Iterations 1
smoothSolver:  Solving for gammaInt, Initial residual = 0.0745853, Final residual = 0.0667744, No Iterations 100
ExecutionTime = 95.11 s  ClockTime = 97 s

forceCoeffs forceCoeffs write:
    Coefficient	Total	Pressure	Viscous	Internal
    Cd:	-0.307033	-0.00849831	-0.298535	0
    Cd(f):	-0.153517	-0.00424949	-0.149267	0
    Cd(r):	-0.153516	-0.00424882	-0.149267	0
    Cl:	6.30038e-05	9.31708e-07	6.20721e-05	0
    Cl(f):	3.29387e-05	9.05625e-07	3.20331e-05	0
    Cl(r):	3.00651e-05	2.60829e-08	3.0039e-05	0
    CmPitch:	1.43682e-06	4.39771e-07	9.97046e-07	0
    CmRoll:	-3.375e-07	-3.35826e-07	-1.67467e-09	0
    CmYaw:	1.50922e-06	-2.24293e-06	3.75215e-06	0
    Cs:	-9.94869e-05	-2.18703e-06	-9.72998e-05	0
    Cs(f):	-4.82342e-05	-3.33645e-06	-4.48978e-05	0
    Cs(r):	-5.12527e-05	1.14942e-06	-5.24021e-05	0

Time = 39

smoothSolver:  Solving for Ux, Initial residual = 0.00471808, Final residual = 5.5273e-05, No Iterations 1
smoothSolver:  Solving for Uy, Initial residual = 0.00261981, Final residual = 2.87552e-05, No Iterations 1
smoothSolver:  Solving for Uz, Initial residual = 0.00424173, Final residual = 4.9154e-05, No Iterations 1
GAMG:  Solving for p, Initial residual = 0.0332985, Final residual = 0.00324997, No Iterations 2
time step continuity errors : sum local = 4.5494e-05, global = 4.27365e-06, cumulative = -6.31839e-06
smoothSolver:  Solving for omega, Initial residual = 0.0118489, Final residual = 0.00011631, No Iterations 1
smoothSolver:  Solving for k, Initial residual = 0.0141952, Final residual = 0.000139053, No Iterations 1
smoothSolver:  Solving for ReThetat, Initial residual = 0.0184225, Final residual = 7.80657e-09, No Iterations 1
smoothSolver:  Solving for gammaInt, Initial residual = 0.0735098, Final residual = 0.0656576, No Iterations 100
ExecutionTime = 97.41 s  ClockTime = 99 s

forceCoeffs forceCoeffs write:
    Coefficient	Total	Pressure	Viscous	Internal
    Cd:	-0.31032	-0.00843678	-0.301883	0
    Cd(f):	-0.15516	-0.00421876	-0.150942	0
    Cd(r):	-0.15516	-0.00421802	-0.150942	0
    Cl:	-0.00019802	9.08725e-07	-0.000198929	0
    Cl(f):	-9.78372e-05	6.31455e-07	-9.84687e-05	0
    Cl(r):	-0.000100183	2.7727e-07	-0.000100461	0
    CmPitch:	1.17301e-06	1.77092e-07	9.95916e-07	0
    CmRoll:	-3.61025e-07	-3.69355e-07	8.33006e-09	0
    CmYaw:	3.05156e-06	-8.57318e-07	3.90888e-06	0
    Cs:	-0.000339182	-2.37739e-06	-0.000336805	0
    Cs(f):	-0.000166539	-2.04601e-06	-0.000164493	0
    Cs(r):	-0.000172643	-3.31375e-07	-0.000172311	0

Time = 40

smoothSolver:  Solving for Ux, Initial residual = 0.00428316, Final residual = 4.9696e-05, No Iterations 1
smoothSolver:  Solving for Uy, Initial residual = 0.00248757, Final residual = 2.71466e-05, No Iterations 1
smoothSolver:  Solving for Uz, Initial residual = 0.00399825, Final residual = 4.62117e-05, No Iterations 1
GAMG:  Solving for p, Initial residual = 0.0313965, Final residual = 0.00153615, No Iterations 3
time step continuity errors : sum local = 2.18958e-05, global = -1.0373e-06, cumulative = -7.35569e-06
smoothSolver:  Solving for omega, Initial residual = 0.0114905, Final residual = 0.000113016, No Iterations 1
smoothSolver:  Solving for k, Initial residual = 0.0137472, Final residual = 0.000134918, No Iterations 1
smoothSolver:  Solving for ReThetat, Initial residual = 0.0178382, Final residual = 7.59827e-09, No Iterations 1
smoothSolver:  Solving for gammaInt, Initial residual = 0.0730587, Final residual = 0.0649365, No Iterations 100
ExecutionTime = 99.77 s  ClockTime = 101 s

forceCoeffs forceCoeffs write:
    Coefficient	Total	Pressure	Viscous	Internal
    Cd:	-0.319216	-0.00837746	-0.310839	0
    Cd(f):	-0.159608	-0.00418905	-0.155419	0
    Cd(r):	-0.159608	-0.0041884	-0.155419	0
    Cl:	-0.000435245	8.65338e-07	-0.000436111	0
    Cl(f):	-0.000216456	5.72808e-07	-0.000217029	0
    Cl(r):	-0.000218789	2.92529e-07	-0.000219082	0
    CmPitch:	1.16637e-06	1.4014e-07	1.02624e-06	0
    CmRoll:	-3.08982e-07	-3.26412e-07	1.74298e-08	0
    CmYaw:	3.71664e-06	-3.21666e-07	4.0383e-06	0
    Cs:	1.99176e-05	-2.5179e-06	2.24355e-05	0
    Cs(f):	1.36754e-05	-1.58061e-06	1.52561e-05	0
    Cs(r):	6.24217e-06	-9.37282e-07	7.17946e-06	0

Time = 41

smoothSolver:  Solving for Ux, Initial residual = 0.00382533, Final residual = 4.39247e-05, No Iterations 1
smoothSolver:  Solving for Uy, Initial residual = 0.00242381, Final residual = 2.64397e-05, No Iterations 1
smoothSolver:  Solving for Uz, Initial residual = 0.00379772, Final residual = 4.36921e-05, No Iterations 1
GAMG:  Solving for p, Initial residual = 0.0304586, Final residual = 0.00278981, No Iterations 2
time step continuity errors : sum local = 3.83345e-05, global = -7.64344e-06, cumulative = -1.49991e-05
smoothSolver:  Solving for omega, Initial residual = 0.011151, Final residual = 0.000109874, No Iterations 1
smoothSolver:  Solving for k, Initial residual = 0.0133222, Final residual = 0.000130994, No Iterations 1
smoothSolver:  Solving for ReThetat, Initial residual = 0.0172881, Final residual = 7.40085e-09, No Iterations 1
smoothSolver:  Solving for gammaInt, Initial residual = 0.0721036, Final residual = 0.06457, No Iterations 100
ExecutionTime = 102.2 s  ClockTime = 104 s

forceCoeffs forceCoeffs write:
    Coefficient	Total	Pressure	Viscous	Internal
    Cd:	-0.328875	-0.0083198	-0.320555	0
    Cd(f):	-0.164437	-0.00416002	-0.160277	0
    Cd(r):	-0.164437	-0.00415979	-0.160277	0
    Cl:	-0.000544987	8.01614e-07	-0.000545789	0
    Cl(f):	-0.000271622	1.93244e-07	-0.000271815	0
    Cl(r):	-0.000273366	6.0837e-07	-0.000273974	0
    CmPitch:	8.72126e-07	-2.07563e-07	1.07969e-06	0
    CmRoll:	-9.0572e-08	-1.15115e-07	2.45426e-08	0
    CmYaw:	4.48269e-06	3.71124e-07	4.11156e-06	0
    Cs:	0.000265468	-2.59512e-06	0.000268063	0
    Cs(f):	0.000137217	-9.26435e-07	0.000138143	0
    Cs(r):	0.000128251	-1.66868e-06	0.00012992	0

Time = 42

smoothSolver:  Solving for Ux, Initial residual = 0.0036376, Final residual = 4.17101e-05, No Iterations 1
smoothSolver:  Solving for Uy, Initial residual = 0.0024188, Final residual = 2.65037e-05, No Iterations 1
smoothSolver:  Solving for Uz, Initial residual = 0.00371114, Final residual = 4.27356e-05, No Iterations 1
GAMG:  Solving for p, Initial residual = 0.0298395, Final residual = 0.00276096, No Iterations 2
time step continuity errors : sum local = 3.62739e-05, global = -1.06958e-05, cumulative = -2.56949e-05
smoothSolver:  Solving for omega, Initial residual = 0.0108313, Final residual = 0.00010692, No Iterations 1
smoothSolver:  Solving for k, Initial residual = 0.0129138, Final residual = 0.000127217, No Iterations 1
smoothSolver:  Solving for ReThetat, Initial residual = 0.0167693, Final residual = 7.21422e-09, No Iterations 1
smoothSolver:  Solving for gammaInt, Initial residual = 0.070549, Final residual = 0.0630661, No Iterations 100
ExecutionTime = 104.37 s  ClockTime = 106 s

forceCoeffs forceCoeffs write:
    Coefficient	Total	Pressure	Viscous	Internal
    Cd:	-0.339896	-0.00826358	-0.331633	0
    Cd(f):	-0.169948	-0.00413168	-0.165816	0
    Cd(r):	-0.169948	-0.0041319	-0.165816	0
    Cl:	-0.000572703	7.28335e-07	-0.000573431	0
    Cl(f):	-0.000285658	-9.27664e-08	-0.000285565	0
    Cl(r):	-0.000287045	8.21101e-07	-0.000287866	0
    CmPitch:	6.93809e-07	-4.56934e-07	1.15074e-06	0
    CmRoll:	1.35293e-07	1.06765e-07	2.85282e-08	0
    CmYaw:	4.74257e-06	5.77831e-07	4.16473e-06	0
    Cs:	0.000616539	-2.62932e-06	0.000619169	0
    Cs(f):	0.000313012	-7.3683e-07	0.000313749	0
    Cs(r):	0.000303527	-1.89249e-06	0.00030542	0

Time = 43

smoothSolver:  Solving for Ux, Initial residual = 0.00348986, Final residual = 4.00777e-05, No Iterations 1
smoothSolver:  Solving for Uy, Initial residual = 0.00241139, Final residual = 2.65959e-05, No Iterations 1
smoothSolver:  Solving for Uz, Initial residual = 0.00362561, Final residual = 4.1855e-05, No Iterations 1
GAMG:  Solving for p, Initial residual = 0.0299473, Final residual = 0.00293336, No Iterations 2
time step continuity errors : sum local = 3.5967e-05, global = -1.02725e-05, cumulative = -3.59675e-05
smoothSolver:  Solving for omega, Initial residual = 0.0105292, Final residual = 0.000104129, No Iterations 1
smoothSolver:  Solving for k, Initial residual = 0.0125261, Final residual = 0.00012362, No Iterations 1
smoothSolver:  Solving for ReThetat, Initial residual = 0.0162797, Final residual = 7.03789e-09, No Iterations 1
smoothSolver:  Solving for gammaInt, Initial residual = 0.0699581, Final residual = 0.0623722, No Iterations 100
ExecutionTime = 106.55 s  ClockTime = 108 s

forceCoeffs forceCoeffs write:
    Coefficient	Total	Pressure	Viscous	Internal
    Cd:	-0.350661	-0.00820882	-0.342452	0
    Cd(f):	-0.17533	-0.00410413	-0.171226	0
    Cd(r):	-0.175331	-0.00410469	-0.171226	0
    Cl:	-0.000535392	6.54751e-07	-0.000536047	0
    Cl(f):	-0.000267031	-2.31845e-07	-0.000266799	0
    Cl(r):	-0.000268361	8.86596e-07	-0.000269248	0
    CmPitch:	6.65131e-07	-5.5922e-07	1.22435e-06	0
    CmRoll:	3.12383e-07	2.81552e-07	3.08311e-08	0
    CmYaw:	4.60416e-06	4.19141e-07	4.18502e-06	0
    Cs:	0.000960052	-2.59557e-06	0.000962648	0
    Cs(f):	0.00048463	-8.78643e-07	0.000485509	0
    Cs(r):	0.000475422	-1.71692e-06	0.000477139	0

Time = 44

smoothSolver:  Solving for Ux, Initial residual = 0.00347662, Final residual = 4.00621e-05, No Iterations 1
smoothSolver:  Solving for Uy, Initial residual = 0.00240993, Final residual = 2.67463e-05, No Iterations 1
smoothSolver:  Solving for Uz, Initial residual = 0.00360336, Final residual = 4.16709e-05, No Iterations 1
GAMG:  Solving for p, Initial residual = 0.0308411, Final residual = 0.00295546, No Iterations 2
time step continuity errors : sum local = 3.34453e-05, global = -8.48539e-06, cumulative = -4.44529e-05
smoothSolver:  Solving for omega, Initial residual = 0.0102389, Final residual = 0.000101439, No Iterations 1
smoothSolver:  Solving for k, Initial residual = 0.0121584, Final residual = 0.000120188, No Iterations 1
smoothSolver:  Solving for ReThetat, Initial residual = 0.0158156, Final residual = 6.87117e-09, No Iterations 1
smoothSolver:  Solving for gammaInt, Initial residual = 0.0691643, Final residual = 0.0616823, No Iterations 100
ExecutionTime = 108.73 s  ClockTime = 110 s

forceCoeffs forceCoeffs write:
    Coefficient	Total	Pressure	Viscous	Internal
    Cd:	-0.359712	-0.00815526	-0.351557	0
    Cd(f):	-0.179856	-0.00407725	-0.175779	0
    Cd(r):	-0.179857	-0.00407801	-0.175779	0
    Cl:	-0.000457711	5.91102e-07	-0.000458302	0
    Cl(f):	-0.000228072	-2.12751e-07	-0.000227859	0
    Cl(r):	-0.000229639	8.03853e-07	-0.000230443	0
    CmPitch:	7.83629e-07	-5.08302e-07	1.29193e-06	0
    CmRoll:	4.08664e-07	3.76144e-07	3.25201e-08	0
    CmYaw:	4.31897e-06	1.32012e-07	4.18696e-06	0
    Cs:	0.00120897	-2.50704e-06	0.00121147	0
    Cs(f):	0.000608803	-1.12151e-06	0.000609924	0
    Cs(r):	0.000600165	-1.38553e-06	0.00060155	0

Time = 45

smoothSolver:  Solving for Ux, Initial residual = 0.00364934, Final residual = 4.22299e-05, No Iterations 1
smoothSolver:  Solving for Uy, Initial residual = 0.0024192, Final residual = 2.69747e-05, No Iterations 1
smoothSolver:  Solving for Uz, Initial residual = 0.00369156, Final residual = 4.26971e-05, No Iterations 1
GAMG:  Solving for p, Initial residual = 0.031513, Final residual = 0.00274335, No Iterations 2
time step continuity errors : sum local = 2.89787e-05, global = -6.05881e-06, cumulative = -5.05117e-05
smoothSolver:  Solving for omega, Initial residual = 0.00996077, Final residual = 9.88546e-05, No Iterations 1
smoothSolver:  Solving for k, Initial residual = 0.0118105, Final residual = 0.000116938, No Iterations 1
smoothSolver:  Solving for ReThetat, Initial residual = 0.0153753, Final residual = 6.71337e-09, No Iterations 1
smoothSolver:  Solving for gammaInt, Initial residual = 0.0683621, Final residual = 0.0605121, No Iterations 100
ExecutionTime = 111.15 s  ClockTime = 113 s

forceCoeffs forceCoeffs write:
    Coefficient	Total	Pressure	Viscous	Internal
    Cd:	-0.366463	-0.00810262	-0.358361	0
    Cd(f):	-0.183231	-0.00405093	-0.17918	0
    Cd(r):	-0.183232	-0.00405169	-0.17918	0
    Cl:	-0.00036955	5.45017e-07	-0.000370095	0
    Cl(f):	-0.000183783	-8.50806e-08	-0.000183698	0
    Cl(r):	-0.000185766	6.30097e-07	-0.000186396	0
    CmPitch:	9.91285e-07	-3.57589e-07	1.34887e-06	0
    CmRoll:	4.17766e-07	3.83363e-07	3.44023e-08	0
    CmYaw:	4.11809e-06	-6.78386e-08	4.18593e-06	0
    Cs:	0.00132396	-2.38975e-06	0.00132635	0
    Cs(f):	0.000666099	-1.26271e-06	0.000667362	0
    Cs(r):	0.000657863	-1.12704e-06	0.00065899	0

Time = 46

smoothSolver:  Solving for Ux, Initial residual = 0.0038625, Final residual = 4.48686e-05, No Iterations 1
smoothSolver:  Solving for Uy, Initial residual = 0.00242147, Final residual = 2.70418e-05, No Iterations 1
smoothSolver:  Solving for Uz, Initial residual = 0.00379526, Final residual = 4.39633e-05, No Iterations 1
GAMG:  Solving for p, Initial residual = 0.0307517, Final residual = 0.00271602, No Iterations 2
time step continuity errors : sum local = 2.761e-05, global = -2.59271e-06, cumulative = -5.31044e-05
smoothSolver:  Solving for omega, Initial residual = 0.00969655, Final residual = 9.63945e-05, No Iterations 1
smoothSolver:  Solving for k, Initial residual = 0.0114794, Final residual = 0.00011383, No Iterations 1
smoothSolver:  Solving for ReThetat, Initial residual = 0.0149574, Final residual = 6.56348e-09, No Iterations 1
smoothSolver:  Solving for gammaInt, Initial residual = 0.0672451, Final residual = 0.0602634, No Iterations 100
ExecutionTime = 113.47 s  ClockTime = 115 s

forceCoeffs forceCoeffs write:
    Coefficient	Total	Pressure	Viscous	Internal
    Cd:	-0.371274	-0.0080508	-0.363223	0
    Cd(f):	-0.185636	-0.00402508	-0.181611	0
    Cd(r):	-0.185637	-0.00402572	-0.181611	0
    Cl:	-0.00029044	5.19519e-07	-0.00029096	0
    Cl(f):	-0.000143996	9.29368e-08	-0.000144089	0
    Cl(r):	-0.000146445	4.26582e-07	-0.000146871	0
    CmPitch:	1.22449e-06	-1.66823e-07	1.39131e-06	0
    CmRoll:	3.58138e-07	3.21335e-07	3.68038e-08	0
    CmYaw:	3.99749e-06	-2.00635e-07	4.19813e-06	0
    Cs:	0.0013001	-2.27917e-06	0.00130237	0
    Cs(f):	0.000654045	-1.34022e-06	0.000655385	0
    Cs(r):	0.00064605	-9.38953e-07	0.000646989	0

Time = 47

smoothSolver:  Solving for Ux, Initial residual = 0.00400329, Final residual = 4.66841e-05, No Iterations 1
smoothSolver:  Solving for Uy, Initial residual = 0.0024315, Final residual = 2.72024e-05, No Iterations 1
smoothSolver:  Solving for Uz, Initial residual = 0.00386034, Final residual = 4.48237e-05, No Iterations 1
GAMG:  Solving for p, Initial residual = 0.0293615, Final residual = 0.00266105, No Iterations 2
time step continuity errors : sum local = 2.69584e-05, global = 2.04075e-06, cumulative = -5.10636e-05
smoothSolver:  Solving for omega, Initial residual = 0.00944576, Final residual = 9.40549e-05, No Iterations 1
smoothSolver:  Solving for k, Initial residual = 0.011161, Final residual = 0.000110843, No Iterations 1
[...]
    in file ../turbulenceModels/lnInclude/kOmegaSSTLM.C at line 326
    Number of lambda iterations exceeds maxLambdaIter(10)
smoothSolver:  Solving for ReThetat, Initial residual = 0.000239684, Final residual = 3.5761e-10, No Iterations 1
smoothSolver:  Solving for gammaInt, Initial residual = 0.013446, Final residual = 7.32723e-05, No Iterations 1
ExecutionTime = 920.86 s  ClockTime = 932 s

forceCoeffs forceCoeffs write:
    Coefficient	Total	Pressure	Viscous	Internal
    Cd:	-0.33401	-0.00578884	-0.328221	0
    Cd(f):	-0.167005	-0.0028944	-0.16411	0
    Cd(r):	-0.167005	-0.00289444	-0.16411	0
    Cl:	0.000116207	3.88923e-07	0.000115818	0
    Cl(f):	5.80248e-05	3.83798e-07	5.7641e-05	0
    Cl(r):	5.81824e-05	5.12468e-09	5.81773e-05	0
    CmPitch:	-7.87977e-08	1.89337e-07	-2.68134e-07	0
    CmRoll:	3.72004e-08	2.0493e-08	1.67074e-08	0
    CmYaw:	2.86557e-06	-5.27029e-07	3.3926e-06	0
    Cs:	0.00149958	3.31775e-06	0.00149626	0
    Cs(f):	0.000752654	1.13185e-06	0.000751522	0
    Cs(r):	0.000746922	2.18591e-06	0.000744737	0

Time = 593

smoothSolver:  Solving for Ux, Initial residual = 0.00147632, Final residual = 1.83084e-05, No Iterations 1
smoothSolver:  Solving for Uy, Initial residual = 0.000687407, Final residual = 8.51039e-06, No Iterations 1
smoothSolver:  Solving for Uz, Initial residual = 0.00153745, Final residual = 1.87502e-05, No Iterations 1
GAMG:  Solving for p, Initial residual = 0.00297248, Final residual = 0.000104653, No Iterations 2
time step continuity errors : sum local = 1.55381e-06, global = 1.87406e-07, cumulative = -6.9227e-07
smoothSolver:  Solving for omega, Initial residual = 0.000159659, Final residual = 1.80197e-06, No Iterations 1
bounding omega, min: -1.76242 max: 968.135 average: 17.5165
smoothSolver:  Solving for k, Initial residual = 0.000736831, Final residual = 8.60863e-06, No Iterations 1
bounding k, min: -0.0353874 max: 86.4322 average: 1.32338
--> FOAM Warning : 
    From Foam::tmp<Foam::DimensionedField<double, Foam::volMesh> > Foam::RASModels::kOmegaSSTLM<BasicTurbulenceModel>::ReThetat0(const Internal&, const Internal&, const Internal&) const [with BasicTurbulenceModel = Foam::IncompressibleTurbulenceModel<Foam::transportModel>; Foam::GeometricField<double, Foam::fvPatchField, Foam::volMesh>::Internal = Foam::DimensionedField<double, Foam::volMesh>]
    in file ../turbulenceModels/lnInclude/kOmegaSSTLM.C at line 326
    Number of lambda iterations exceeds maxLambdaIter(10)
smoothSolver:  Solving for ReThetat, Initial residual = 0.000237953, Final residual = 3.63052e-10, No Iterations 1
smoothSolver:  Solving for gammaInt, Initial residual = 0.0123003, Final residual = 6.75976e-05, No Iterations 1
ExecutionTime = 922.23 s  ClockTime = 933 s

forceCoeffs forceCoeffs write:
    Coefficient	Total	Pressure	Viscous	Internal
    Cd:	-0.333997	-0.00578915	-0.328208	0
    Cd(f):	-0.166999	-0.00289456	-0.164104	0
    Cd(r):	-0.166999	-0.0028946	-0.164104	0
    Cl:	0.000108679	3.85992e-07	0.000108293	0
    Cl(f):	5.4267e-05	3.84314e-07	5.38826e-05	0
    Cl(r):	5.44119e-05	1.67836e-09	5.44103e-05	0
    CmPitch:	-7.24918e-08	1.91318e-07	-2.6381e-07	0
    CmRoll:	3.64405e-08	1.98118e-08	1.66287e-08	0
    CmYaw:	2.77845e-06	-5.60675e-07	3.33912e-06	0
    Cs:	0.00145003	3.30896e-06	0.00144672	0
    Cs(f):	0.000727793	1.0938e-06	0.0007267	0
    Cs(r):	0.000722237	2.21515e-06	0.000720021	0

Time = 594

smoothSolver:  Solving for Ux, Initial residual = 0.00147549, Final residual = 1.83088e-05, No Iterations 1
smoothSolver:  Solving for Uy, Initial residual = 0.0006856, Final residual = 8.48208e-06, No Iterations 1
smoothSolver:  Solving for Uz, Initial residual = 0.00153695, Final residual = 1.87214e-05, No Iterations 1
GAMG:  Solving for p, Initial residual = 0.00297449, Final residual = 0.000290713, No Iterations 1
time step continuity errors : sum local = 4.31848e-06, global = 3.29065e-07, cumulative = -3.63205e-07
smoothSolver:  Solving for omega, Initial residual = 0.000158879, Final residual = 1.79397e-06, No Iterations 1
smoothSolver:  Solving for k, Initial residual = 0.000733186, Final residual = 8.59869e-06, No Iterations 1
bounding k, min: -0.039414 max: 86.4208 average: 1.32366
--> FOAM Warning : 
    From Foam::tmp<Foam::DimensionedField<double, Foam::volMesh> > Foam::RASModels::kOmegaSSTLM<BasicTurbulenceModel>::ReThetat0(const Internal&, const Internal&, const Internal&) const [with BasicTurbulenceModel = Foam::IncompressibleTurbulenceModel<Foam::transportModel>; Foam::GeometricField<double, Foam::fvPatchField, Foam::volMesh>::Internal = Foam::DimensionedField<double, Foam::volMesh>]
    in file ../turbulenceModels/lnInclude/kOmegaSSTLM.C at line 326
    Number of lambda iterations exceeds maxLambdaIter(10)
smoothSolver:  Solving for ReThetat, Initial residual = 0.000236488, Final residual = 3.53136e-10, No Iterations 1
smoothSolver:  Solving for gammaInt, Initial residual = 0.0137724, Final residual = 8.44656e-05, No Iterations 1
ExecutionTime = 923.46 s  ClockTime = 934 s

forceCoeffs forceCoeffs write:
    Coefficient	Total	Pressure	Viscous	Internal
    Cd:	-0.333997	-0.00578946	-0.328208	0
    Cd(f):	-0.166999	-0.00289471	-0.164104	0
    Cd(r):	-0.166999	-0.00289475	-0.164104	0
    Cl:	0.000105037	3.82866e-07	0.000104654	0
    Cl(f):	5.24532e-05	3.85231e-07	5.20679e-05	0
    Cl(r):	5.25841e-05	-2.36568e-09	5.25865e-05	0
    CmPitch:	-6.54673e-08	1.93799e-07	-2.59266e-07	0
    CmRoll:	3.5607e-08	1.90578e-08	1.65492e-08	0
    CmYaw:	2.69479e-06	-5.8933e-07	3.28412e-06	0
    Cs:	0.00142709	3.29961e-06	0.00142379	0
    Cs(f):	0.000716242	1.06048e-06	0.000715181	0
    Cs(r):	0.000710852	2.23914e-06	0.000708613	0

Time = 595

smoothSolver:  Solving for Ux, Initial residual = 0.00147175, Final residual = 1.82504e-05, No Iterations 1
smoothSolver:  Solving for Uy, Initial residual = 0.000683232, Final residual = 8.44547e-06, No Iterations 1
smoothSolver:  Solving for Uz, Initial residual = 0.00153323, Final residual = 1.864e-05, No Iterations 1
GAMG:  Solving for p, Initial residual = 0.0030111, Final residual = 0.000106589, No Iterations 2
time step continuity errors : sum local = 1.58363e-06, global = 1.91268e-07, cumulative = -1.71937e-07
smoothSolver:  Solving for omega, Initial residual = 0.000157155, Final residual = 1.78167e-06, No Iterations 1
smoothSolver:  Solving for k, Initial residual = 0.000730021, Final residual = 8.59449e-06, No Iterations 1
bounding k, min: -0.0598964 max: 86.408 average: 1.32395
--> FOAM Warning : 
    From Foam::tmp<Foam::DimensionedField<double, Foam::volMesh> > Foam::RASModels::kOmegaSSTLM<BasicTurbulenceModel>::ReThetat0(const Internal&, const Internal&, const Internal&) const [with BasicTurbulenceModel = Foam::IncompressibleTurbulenceModel<Foam::transportModel>; Foam::GeometricField<double, Foam::fvPatchField, Foam::volMesh>::Internal = Foam::DimensionedField<double, Foam::volMesh>]
    in file ../turbulenceModels/lnInclude/kOmegaSSTLM.C at line 326
    Number of lambda iterations exceeds maxLambdaIter(10)
smoothSolver:  Solving for ReThetat, Initial residual = 0.000234717, Final residual = 3.48249e-10, No Iterations 1
smoothSolver:  Solving for gammaInt, Initial residual = 0.0132456, Final residual = 8.70609e-05, No Iterations 1
ExecutionTime = 924.67 s  ClockTime = 935 s

forceCoeffs forceCoeffs write:
    Coefficient	Total	Pressure	Viscous	Internal
    Cd:	-0.33398	-0.00578977	-0.32819	0
    Cd(f):	-0.16699	-0.00289487	-0.164095	0
    Cd(r):	-0.16699	-0.0028949	-0.164095	0
    Cl:	9.75524e-05	3.79186e-07	9.71732e-05	0
    Cl(f):	4.8717e-05	3.85015e-07	4.8332e-05	0
    Cl(r):	4.88354e-05	-5.82886e-09	4.88412e-05	0
    CmPitch:	-5.91956e-08	1.95422e-07	-2.54618e-07	0
    CmRoll:	3.46887e-08	1.82335e-08	1.64552e-08	0
    CmYaw:	2.60741e-06	-6.20532e-07	3.22794e-06	0
    Cs:	0.00137348	3.28681e-06	0.0013702	0
    Cs(f):	0.000689349	1.02287e-06	0.000688326	0
    Cs(r):	0.000684134	2.26394e-06	0.00068187	0

Time = 596

smoothSolver:  Solving for Ux, Initial residual = 0.0014716, Final residual = 1.8217e-05, No Iterations 1
smoothSolver:  Solving for Uy, Initial residual = 0.000681373, Final residual = 8.41522e-06, No Iterations 1
smoothSolver:  Solving for Uz, Initial residual = 0.00153413, Final residual = 1.86069e-05, No Iterations 1
GAMG:  Solving for p, Initial residual = 0.00301617, Final residual = 0.000285233, No Iterations 1
time step continuity errors : sum local = 4.24012e-06, global = 3.39768e-07, cumulative = 1.67831e-07
smoothSolver:  Solving for omega, Initial residual = 0.000156044, Final residual = 1.77121e-06, No Iterations 1
bounding omega, min: -1.79256 max: 967.567 average: 17.5172
smoothSolver:  Solving for k, Initial residual = 0.000726797, Final residual = 8.58714e-06, No Iterations 1
bounding k, min: -0.0581916 max: 86.3942 average: 1.32424
--> FOAM Warning : 
    From Foam::tmp<Foam::DimensionedField<double, Foam::volMesh> > Foam::RASModels::kOmegaSSTLM<BasicTurbulenceModel>::ReThetat0(const Internal&, const Internal&, const Internal&) const [with BasicTurbulenceModel = Foam::IncompressibleTurbulenceModel<Foam::transportModel>; Foam::GeometricField<double, Foam::fvPatchField, Foam::volMesh>::Internal = Foam::DimensionedField<double, Foam::volMesh>]
    in file ../turbulenceModels/lnInclude/kOmegaSSTLM.C at line 326
    Number of lambda iterations exceeds maxLambdaIter(10)
smoothSolver:  Solving for ReThetat, Initial residual = 0.000232892, Final residual = 3.54244e-10, No Iterations 1
smoothSolver:  Solving for gammaInt, Initial residual = 0.012579, Final residual = 9.12825e-05, No Iterations 1
ExecutionTime = 925.86 s  ClockTime = 937 s

forceCoeffs forceCoeffs write:
    Coefficient	Total	Pressure	Viscous	Internal
    Cd:	-0.333978	-0.00579007	-0.328188	0
    Cd(f):	-0.166989	-0.00289502	-0.164094	0
    Cd(r):	-0.166989	-0.00289505	-0.164094	0
    Cl:	9.37304e-05	3.75321e-07	9.33551e-05	0
    Cl(f):	4.68128e-05	3.8499e-07	4.64278e-05	0
    Cl(r):	4.69176e-05	-9.66935e-09	4.69273e-05	0
    CmPitch:	-5.24427e-08	1.9733e-07	-2.49772e-07	0
    CmRoll:	3.4233e-08	1.78733e-08	1.63597e-08	0
    CmYaw:	2.52398e-06	-6.46357e-07	3.17033e-06	0
    Cs:	0.00134934	3.27338e-06	0.00134606	0
    Cs(f):	0.000677193	9.90334e-07	0.000676203	0
    Cs(r):	0.000672145	2.28305e-06	0.000669862	0

Time = 597

smoothSolver:  Solving for Ux, Initial residual = 0.00146865, Final residual = 1.8122e-05, No Iterations 1
smoothSolver:  Solving for Uy, Initial residual = 0.000678883, Final residual = 8.38308e-06, No Iterations 1
smoothSolver:  Solving for Uz, Initial residual = 0.00153085, Final residual = 1.85229e-05, No Iterations 1
GAMG:  Solving for p, Initial residual = 0.00305591, Final residual = 0.00030304, No Iterations 1
time step continuity errors : sum local = 4.50562e-06, global = 3.68956e-07, cumulative = 5.36787e-07
smoothSolver:  Solving for omega, Initial residual = 0.00015598, Final residual = 1.76091e-06, No Iterations 1
bounding omega, min: -1.76666 max: 967.372 average: 17.5176
smoothSolver:  Solving for k, Initial residual = 0.000723082, Final residual = 8.57661e-06, No Iterations 1
bounding k, min: -0.0291629 max: 86.3791 average: 1.32454
--> FOAM Warning : 
    From Foam::tmp<Foam::DimensionedField<double, Foam::volMesh> > Foam::RASModels::kOmegaSSTLM<BasicTurbulenceModel>::ReThetat0(const Internal&, const Internal&, const Internal&) const [with BasicTurbulenceModel = Foam::IncompressibleTurbulenceModel<Foam::transportModel>; Foam::GeometricField<double, Foam::fvPatchField, Foam::volMesh>::Internal = Foam::DimensionedField<double, Foam::volMesh>]
    in file ../turbulenceModels/lnInclude/kOmegaSSTLM.C at line 326
    Number of lambda iterations exceeds maxLambdaIter(10)
smoothSolver:  Solving for ReThetat, Initial residual = 0.000231572, Final residual = 3.76942e-10, No Iterations 1
smoothSolver:  Solving for gammaInt, Initial residual = 0.0118937, Final residual = 9.21099e-05, No Iterations 1
ExecutionTime = 927.06 s  ClockTime = 938 s

forceCoeffs forceCoeffs write:
    Coefficient	Total	Pressure	Viscous	Internal
    Cd:	-0.333976	-0.00579037	-0.328186	0
    Cd(f):	-0.166988	-0.00289517	-0.164093	0
    Cd(r):	-0.166988	-0.0028952	-0.164093	0
    Cl:	8.96583e-05	3.71313e-07	8.9287e-05	0
    Cl(f):	4.47833e-05	3.84721e-07	4.43986e-05	0
    Cl(r):	4.4875e-05	-1.34087e-08	4.48884e-05	0
    CmPitch:	-4.58577e-08	1.99065e-07	-2.44923e-07	0
    CmRoll:	3.39105e-08	1.76543e-08	1.62563e-08	0
    CmYaw:	2.44137e-06	-6.71156e-07	3.11253e-06	0
    Cs:	0.00132244	3.25941e-06	0.00131918	0
    Cs(f):	0.000663659	9.58551e-07	0.000662701	0
    Cs(r):	0.000658776	2.30086e-06	0.000656476	0

Time = 598

smoothSolver:  Solving for Ux, Initial residual = 0.0014658, Final residual = 1.80339e-05, No Iterations 1
smoothSolver:  Solving for Uy, Initial residual = 0.000676446, Final residual = 8.35331e-06, No Iterations 1
smoothSolver:  Solving for Uz, Initial residual = 0.00152788, Final residual = 1.84397e-05, No Iterations 1
GAMG:  Solving for p, Initial residual = 0.00309995, Final residual = 0.00011453, No Iterations 2
time step continuity errors : sum local = 1.70317e-06, global = 2.00623e-07, cumulative = 7.37411e-07
smoothSolver:  Solving for omega, Initial residual = 0.000155306, Final residual = 1.74965e-06, No Iterations 1
smoothSolver:  Solving for k, Initial residual = 0.000719676, Final residual = 8.57491e-06, No Iterations 1
bounding k, min: -0.0971801 max: 86.3626 average: 1.32485
--> FOAM Warning : 
    From Foam::tmp<Foam::DimensionedField<double, Foam::volMesh> > Foam::RASModels::kOmegaSSTLM<BasicTurbulenceModel>::ReThetat0(const Internal&, const Internal&, const Internal&) const [with BasicTurbulenceModel = Foam::IncompressibleTurbulenceModel<Foam::transportModel>; Foam::GeometricField<double, Foam::fvPatchField, Foam::volMesh>::Internal = Foam::DimensionedField<double, Foam::volMesh>]
    in file ../turbulenceModels/lnInclude/kOmegaSSTLM.C at line 326
    Number of lambda iterations exceeds maxLambdaIter(10)
smoothSolver:  Solving for ReThetat, Initial residual = 0.000229963, Final residual = 3.72326e-10, No Iterations 1
smoothSolver:  Solving for gammaInt, Initial residual = 0.0129221, Final residual = 9.18109e-05, No Iterations 1
ExecutionTime = 928.28 s  ClockTime = 939 s

forceCoeffs forceCoeffs write:
    Coefficient	Total	Pressure	Viscous	Internal
    Cd:	-0.333959	-0.00579067	-0.328168	0
    Cd(f):	-0.166979	-0.00289532	-0.164084	0
    Cd(r):	-0.166979	-0.00289535	-0.164084	0
    Cl:	8.29424e-05	3.66798e-07	8.25756e-05	0
    Cl(f):	4.1431e-05	3.83129e-07	4.10478e-05	0
    Cl(r):	4.15114e-05	-1.63306e-08	4.15278e-05	0
    CmPitch:	-4.0234e-08	1.9973e-07	-2.39964e-07	0
    CmRoll:	3.3382e-08	1.7223e-08	1.61589e-08	0
    CmYaw:	2.35403e-06	-6.98858e-07	3.05289e-06	0
    Cs:	0.0012606	3.24139e-06	0.00125736	0
    Cs(f):	0.000632655	9.21835e-07	0.000631733	0
    Cs(r):	0.000627947	2.31955e-06	0.000625627	0

Time = 599

smoothSolver:  Solving for Ux, Initial residual = 0.00146808, Final residual = 1.80246e-05, No Iterations 1
smoothSolver:  Solving for Uy, Initial residual = 0.000674522, Final residual = 8.33058e-06, No Iterations 1
smoothSolver:  Solving for Uz, Initial residual = 0.00152986, Final residual = 1.8423e-05, No Iterations 1
GAMG:  Solving for p, Initial residual = 0.00310188, Final residual = 0.000294877, No Iterations 1
time step continuity errors : sum local = 4.38774e-06, global = 3.72348e-07, cumulative = 1.10976e-06
smoothSolver:  Solving for omega, Initial residual = 0.000153665, Final residual = 1.73542e-06, No Iterations 1
smoothSolver:  Solving for k, Initial residual = 0.000716308, Final residual = 8.5688e-06, No Iterations 1
bounding k, min: -0.0485009 max: 86.345 average: 1.32517
--> FOAM Warning : 
    From Foam::tmp<Foam::DimensionedField<double, Foam::volMesh> > Foam::RASModels::kOmegaSSTLM<BasicTurbulenceModel>::ReThetat0(const Internal&, const Internal&, const Internal&) const [with BasicTurbulenceModel = Foam::IncompressibleTurbulenceModel<Foam::transportModel>; Foam::GeometricField<double, Foam::fvPatchField, Foam::volMesh>::Internal = Foam::DimensionedField<double, Foam::volMesh>]
    in file ../turbulenceModels/lnInclude/kOmegaSSTLM.C at line 326
    Number of lambda iterations exceeds maxLambdaIter(10)
smoothSolver:  Solving for ReThetat, Initial residual = 0.000228027, Final residual = 3.61518e-10, No Iterations 1
smoothSolver:  Solving for gammaInt, Initial residual = 0.0120539, Final residual = 7.8428e-05, No Iterations 1
ExecutionTime = 929.55 s  ClockTime = 940 s

forceCoeffs forceCoeffs write:
    Coefficient	Total	Pressure	Viscous	Internal
    Cd:	-0.333959	-0.00579097	-0.328168	0
    Cd(f):	-0.166979	-0.00289546	-0.164084	0
    Cd(r):	-0.166979	-0.0028955	-0.164084	0
    Cl:	7.92288e-05	3.62088e-07	7.88667e-05	0
    Cl(f):	3.95807e-05	3.82335e-07	3.91984e-05	0
    Cl(r):	3.96481e-05	-2.02467e-08	3.96683e-05	0
    CmPitch:	-3.36524e-08	2.01291e-07	-2.34943e-07	0
    CmRoll:	3.53601e-08	1.92923e-08	1.60678e-08	0
    CmYaw:	2.27055e-06	-7.21397e-07	2.99195e-06	0
    Cs:	0.00123315	3.22237e-06	0.00122992	0
    Cs(f):	0.000618843	8.8979e-07	0.000617953	0
    Cs(r):	0.000614302	2.33258e-06	0.00061197	0

Time = 600

smoothSolver:  Solving for Ux, Initial residual = 0.0014654, Final residual = 1.79565e-05, No Iterations 1
smoothSolver:  Solving for Uy, Initial residual = 0.000672058, Final residual = 8.30452e-06, No Iterations 1
smoothSolver:  Solving for Uz, Initial residual = 0.00152659, Final residual = 1.83552e-05, No Iterations 1
GAMG:  Solving for p, Initial residual = 0.003134, Final residual = 0.000307644, No Iterations 1
time step continuity errors : sum local = 4.57857e-06, global = 3.8937e-07, cumulative = 1.49913e-06
smoothSolver:  Solving for omega, Initial residual = 0.000152697, Final residual = 1.72615e-06, No Iterations 1
bounding omega, min: -1.7975 max: 966.775 average: 17.5184
smoothSolver:  Solving for k, Initial residual = 0.000714132, Final residual = 8.57134e-06, No Iterations 1
bounding k, min: -0.0531172 max: 86.3261 average: 1.32549
--> FOAM Warning : 
    From Foam::tmp<Foam::DimensionedField<double, Foam::volMesh> > Foam::RASModels::kOmegaSSTLM<BasicTurbulenceModel>::ReThetat0(const Internal&, const Internal&, const Internal&) const [with BasicTurbulenceModel = Foam::IncompressibleTurbulenceModel<Foam::transportModel>; Foam::GeometricField<double, Foam::fvPatchField, Foam::volMesh>::Internal = Foam::DimensionedField<double, Foam::volMesh>]
    in file ../turbulenceModels/lnInclude/kOmegaSSTLM.C at line 326
    Number of lambda iterations exceeds maxLambdaIter(10)
smoothSolver:  Solving for ReThetat, Initial residual = 0.000225796, Final residual = 3.43439e-10, No Iterations 1
smoothSolver:  Solving for gammaInt, Initial residual = 0.0138218, Final residual = 8.26641e-05, No Iterations 1
ExecutionTime = 932.22 s  ClockTime = 943 s

forceCoeffs forceCoeffs write:
    Coefficient	Total	Pressure	Viscous	Internal
    Cd:	-0.333961	-0.00579126	-0.32817	0
    Cd(f):	-0.166981	-0.00289561	-0.164085	0
    Cd(r):	-0.166981	-0.00289565	-0.164085	0
    Cl:	7.56439e-05	3.57324e-07	7.52866e-05	0
    Cl(f):	3.77954e-05	3.82016e-07	3.74134e-05	0
    Cl(r):	3.78485e-05	-2.4692e-08	3.78732e-05	0
    CmPitch:	-2.6522e-08	2.03354e-07	-2.29876e-07	0
    CmRoll:	3.54641e-08	1.94954e-08	1.59687e-08	0
    CmYaw:	2.1859e-06	-7.44985e-07	2.93088e-06	0
    Cs:	0.00120368	3.20268e-06	0.00120048	0
    Cs(f):	0.000604027	8.56354e-07	0.00060317	0
    Cs(r):	0.000599655	2.34632e-06	0.000597309	0

    writing force and moment coefficient files.

yPlus yPlus write:
    writing field yPlus
    patch sphere_1m y+ : min = 126.396, max = 3502.65, average = 1922.76
End

