/*---------------------------------------------------------------------------*\
| =========                 |                                                 |
| \\      /  F ield         | OpenFOAM: The Open Source CFD Toolbox           |
|  \\    /   O peration     | Version:  2206                                  |
|   \\  /    A nd           | Website:  www.openfoam.com                      |
|    \\/     M anipulation  |                                                 |
\*---------------------------------------------------------------------------*/
Build  : _76d719d1-20220624 OPENFOAM=2206 version=2206
Arch   : "LSB;label=32;scalar=64"
Exec   : simpleFoam
Date   : Aug 03 2022
Time   : 11:26:30
Host   : bfe9cf2175e5
PID    : 279
I/O    : uncollated
Case   : /home/openfoam
nProcs : 1
trapFpe: Floating point exception trapping enabled (FOAM_SIGFPE).
fileModificationChecking : Monitoring run-time modified files using timeStampMaster (fileModificationSkew 5, maxFileModificationPolls 20)
allowSystemOperations : Allowing user-supplied system call operations

// * * * * * * * * * * * * * * * * * * * * * * * * * * * * * * * * * * * * * //
Create time

Create mesh for time = 0


SIMPLE: convergence criteria
    field p	 tolerance 1e-05
    field U	 tolerance 1e-05
    field "(k|omega|gammaInt|ReThetat)"	 tolerance 0.0001

Reading field p

Reading field U

Reading/calculating face flux field phi

Selecting incompressible transport model Newtonian
Selecting turbulence model type RAS
Selecting RAS turbulence model kOmegaSSTLM
Selecting patchDistMethod meshWave
RAS
{
    RASModel        kOmegaSSTLM;
    turbulence      on;
    printCoeffs     on;
    alphaK1         0.85;
    alphaK2         1;
    alphaOmega1     0.5;
    alphaOmega2     0.856;
    gamma1          0.555556;
    gamma2          0.44;
    beta1           0.075;
    beta2           0.0828;
    betaStar        0.09;
    a1              0.31;
    b1              1;
    c1              10;
    F3              false;
    decayControl    false;
    kInf            0;
    omegaInf        0;
    ca1             2;
    ca2             0.06;
    ce1             1;
    ce2             50;
    cThetat         0.03;
    sigmaThetat     2;
}

No MRF models present

No finite volume options present

Starting time loop

forceCoeffs forceCoeffs:
--> FOAM Warning : 
    From Foam::labelHashSet Foam::polyBoundaryMesh::patchSet(const Foam::UList<Foam::wordRe>&, bool, bool) const
    in file meshes/polyMesh/polyBoundaryMesh/polyBoundaryMesh.C at line 893
    Cannot find any patch or group names matching sfera1,
    rho: rhoInf
    Freestream density (rhoInf) set to 1.225
    Not including porosity effects
    magUInf: 42
    lRef   : 1
    Aref   : 3.14
    rhoInf : 1.225
    Selecting all coefficients
    - Drag force: Cd
    - Drag force front: Cd(f)
    - Drag force rear: Cd(r)
    - Lift force: Cl
    - Lift force front: Cl(f)
    - Lift force rear: Cl(r)
    - Pitch moment: CmPitch
    - Roll moment: CmRoll
    - Yaw moment: CmYaw
    - Side force: Cs
    - Side force front: Cs(f)
    - Side force rear: Cs(r)


Time = 1

smoothSolver:  Solving for Ux, Initial residual = 1, Final residual = 0.0193078, No Iterations 1
smoothSolver:  Solving for Uy, Initial residual = 1, Final residual = 0.0169125, No Iterations 1
smoothSolver:  Solving for Uz, Initial residual = 1, Final residual = 0.0139423, No Iterations 1
GAMG:  Solving for p, Initial residual = 1, Final residual = 0.0864882, No Iterations 4
time step continuity errors : sum local = 0.000640045, global = 5.03068e-05, cumulative = 5.03068e-05
smoothSolver:  Solving for omega, Initial residual = 0.370009, Final residual = 0.00209215, No Iterations 1
smoothSolver:  Solving for k, Initial residual = 1, Final residual = 0.0064098, No Iterations 1
smoothSolver:  Solving for ReThetat, Initial residual = 1, Final residual = 6.33742e-07, No Iterations 1
smoothSolver:  Solving for gammaInt, Initial residual = 1, Final residual = 1.19532, No Iterations 100
ExecutionTime = 4.37 s  ClockTime = 4 s

forceCoeffs forceCoeffs write:
    Coefficient	Total	Pressure	Viscous	Internal
    Cd:	-4.67228	-0.00875682	-4.66352	0
    Cd(f):	-2.33853	-0.00677241	-2.33176	0
    Cd(r):	-2.33375	-0.00198441	-2.33176	0
    Cl:	0.369088	3.25997e-05	0.369056	0
    Cl(f):	3.52835	3.33643	0.191915	0
    Cl(r):	-3.15926	-3.3364	0.177141	0
    CmPitch:	3.3438	3.33641	0.00738668	0
    CmRoll:	-0.00239413	-0.002394	-1.33556e-07	0
    CmYaw:	-0.0107171	-0.0107007	-1.63534e-05	0
    Cs:	-0.00129189	-2.3685e-07	-0.00129166	0
    Cs(f):	-0.011363	-0.0107008	-0.000662181	0
    Cs(r):	0.0100711	0.0107006	-0.000629474	0

Time = 2

smoothSolver:  Solving for Ux, Initial residual = 0.383637, Final residual = 0.0048248, No Iterations 1
smoothSolver:  Solving for Uy, Initial residual = 0.332555, Final residual = 0.00409338, No Iterations 1
smoothSolver:  Solving for Uz, Initial residual = 0.387734, Final residual = 0.00479101, No Iterations 1
GAMG:  Solving for p, Initial residual = 0.196728, Final residual = 0.013553, No Iterations 3
time step continuity errors : sum local = 0.000606028, global = 4.12498e-05, cumulative = 9.15566e-05
smoothSolver:  Solving for omega, Initial residual = 0.234339, Final residual = 0.00136582, No Iterations 1
smoothSolver:  Solving for k, Initial residual = 0.858349, Final residual = 0.00492461, No Iterations 1
smoothSolver:  Solving for ReThetat, Initial residual = 0.951582, Final residual = 5.81277e-07, No Iterations 1
smoothSolver:  Solving for gammaInt, Initial residual = 0.361048, Final residual = 0.377353, No Iterations 100
ExecutionTime = 6.84 s  ClockTime = 7 s

forceCoeffs forceCoeffs write:
    Coefficient	Total	Pressure	Viscous	Internal
    Cd:	-6.14297	-0.00939876	-6.13357	0
    Cd(f):	-3.07382	-0.00703659	-3.06679	0
    Cd(r):	-3.06915	-0.00236217	-3.06679	0
    Cl:	0.312858	-8.03409e-05	0.312939	0
    Cl(f):	4.64391	4.47922	0.164694	0
    Cl(r):	-4.33105	-4.4793	0.148244	0
    CmPitch:	4.48748	4.47926	0.00822499	0
    CmRoll:	-0.00233745	-0.00233721	-2.46213e-07	0
    CmYaw:	-0.0140641	-0.0140464	-1.77365e-05	0
    Cs:	-0.00152982	-6.12214e-07	-0.00152921	0
    Cs(f):	-0.014829	-0.0140467	-0.000782343	0
    Cs(r):	0.0132992	0.0140461	-0.00074687	0

Time = 3

smoothSolver:  Solving for Ux, Initial residual = 0.248854, Final residual = 0.00311884, No Iterations 1
smoothSolver:  Solving for Uy, Initial residual = 0.211532, Final residual = 0.00261688, No Iterations 1
smoothSolver:  Solving for Uz, Initial residual = 0.251479, Final residual = 0.00311145, No Iterations 1
GAMG:  Solving for p, Initial residual = 0.155276, Final residual = 0.0098403, No Iterations 2
time step continuity errors : sum local = 0.00064216, global = 3.64677e-05, cumulative = 0.000128024
smoothSolver:  Solving for omega, Initial residual = 0.167461, Final residual = 0.00100385, No Iterations 1
smoothSolver:  Solving for k, Initial residual = 0.372985, Final residual = 0.00220145, No Iterations 1
smoothSolver:  Solving for ReThetat, Initial residual = 0.835376, Final residual = 4.90241e-07, No Iterations 1
smoothSolver:  Solving for gammaInt, Initial residual = 0.269207, Final residual = 0.263535, No Iterations 100
ExecutionTime = 9.22 s  ClockTime = 9 s

forceCoeffs forceCoeffs write:
    Coefficient	Total	Pressure	Viscous	Internal
    Cd:	-5.24936	-0.0101311	-5.23923	0
    Cd(f):	-2.6241	-0.00448545	-2.61961	0
    Cd(r):	-2.62526	-0.00564561	-2.61961	0
    Cl:	0.144794	-0.00020955	0.145004	0
    Cl(f):	3.98296	3.9013	0.0816565	0
    Cl(r):	-3.83817	-3.90151	0.0633471	0
    CmPitch:	3.91056	3.90141	0.00915472	0
    CmRoll:	0.00058011	0.000580076	3.32491e-08	0
    CmYaw:	-0.0119744	-0.0119551	-1.93178e-05	0
    Cs:	0.00248552	-5.03638e-07	0.00248602	0
    Cs(f):	-0.0107317	-0.0119554	0.00122369	0
    Cs(r):	0.0132172	0.0119548	0.00126233	0

Time = 4

smoothSolver:  Solving for Ux, Initial residual = 0.158077, Final residual = 0.00197454, No Iterations 1
smoothSolver:  Solving for Uy, Initial residual = 0.132531, Final residual = 0.00164644, No Iterations 1
smoothSolver:  Solving for Uz, Initial residual = 0.161676, Final residual = 0.00200174, No Iterations 1
GAMG:  Solving for p, Initial residual = 0.147044, Final residual = 0.009896, No Iterations 3
time step continuity errors : sum local = 0.000702795, global = -1.18228e-05, cumulative = 0.000116201
smoothSolver:  Solving for omega, Initial residual = 0.128542, Final residual = 0.000789705, No Iterations 1
smoothSolver:  Solving for k, Initial residual = 0.234081, Final residual = 0.00141423, No Iterations 1
smoothSolver:  Solving for ReThetat, Initial residual = 0.685031, Final residual = 3.84784e-07, No Iterations 1
smoothSolver:  Solving for gammaInt, Initial residual = 0.229068, Final residual = 0.21694, No Iterations 100
ExecutionTime = 12.03 s  ClockTime = 12 s

forceCoeffs forceCoeffs write:
    Coefficient	Total	Pressure	Viscous	Internal
    Cd:	-2.96343	-0.0104355	-2.953	0
    Cd(f):	-1.47976	-0.00326561	-1.4765	0
    Cd(r):	-1.48367	-0.0071699	-1.4765	0
    Cl:	-0.05312	-0.000334805	-0.0527852	0
    Cl(f):	2.21023	2.227	-0.0167616	0
    Cl(r):	-2.26335	-2.22733	-0.0360236	0
    CmPitch:	2.23679	2.22716	0.009631	0
    CmRoll:	0.00195267	0.00195214	5.29376e-07	0
    CmYaw:	-0.00674619	-0.00672632	-1.98752e-05	0
    Cs:	0.0032779	-2.11542e-07	0.00327811	0
    Cs(f):	-0.00510725	-0.00672642	0.00161918	0
    Cs(r):	0.00838514	0.00672621	0.00165893	0

Time = 5

smoothSolver:  Solving for Ux, Initial residual = 0.0866564, Final residual = 0.00106896, No Iterations 1
smoothSolver:  Solving for Uy, Initial residual = 0.0710458, Final residual = 0.000880565, No Iterations 1
smoothSolver:  Solving for Uz, Initial residual = 0.0920046, Final residual = 0.00113377, No Iterations 1
GAMG:  Solving for p, Initial residual = 0.138557, Final residual = 0.0125529, No Iterations 3
time step continuity errors : sum local = 0.000864125, global = -4.08368e-05, cumulative = 7.53647e-05
smoothSolver:  Solving for omega, Initial residual = 0.103104, Final residual = 0.000646677, No Iterations 1
smoothSolver:  Solving for k, Initial residual = 0.168352, Final residual = 0.00103785, No Iterations 1
smoothSolver:  Solving for ReThetat, Initial residual = 0.537768, Final residual = 2.87777e-07, No Iterations 1
smoothSolver:  Solving for gammaInt, Initial residual = 0.202342, Final residual = 0.187137, No Iterations 100
ExecutionTime = 14.5 s  ClockTime = 14 s

forceCoeffs forceCoeffs write:
    Coefficient	Total	Pressure	Viscous	Internal
    Cd:	-0.587293	-0.0101457	-0.577147	0
    Cd(f):	-0.291575	-0.00300277	-0.288573	0
    Cd(r):	-0.295718	-0.00714291	-0.288575	0
    Cl:	-0.172019	-0.00042802	-0.171591	0
    Cl(f):	0.335484	0.4118	-0.0763156	0
    Cl(r):	-0.507504	-0.412228	-0.0952756	0
    CmPitch:	0.421494	0.412014	0.00948001	0
    CmRoll:	0.00207127	0.00207007	1.20154e-06	0
    CmYaw:	-0.00136036	-0.00134125	-1.91102e-05	0
    Cs:	0.00233094	4.00327e-07	0.00233054	0
    Cs(f):	-0.000194895	-0.00134105	0.00114616	0
    Cs(r):	0.00252583	0.00134145	0.00118438	0

Time = 6

smoothSolver:  Solving for Ux, Initial residual = 0.03735, Final residual = 0.000443697, No Iterations 1
smoothSolver:  Solving for Uy, Initial residual = 0.0280513, Final residual = 0.000331276, No Iterations 1
smoothSolver:  Solving for Uz, Initial residual = 0.0420277, Final residual = 0.00049759, No Iterations 1
GAMG:  Solving for p, Initial residual = 0.187434, Final residual = 0.0135539, No Iterations 3
time step continuity errors : sum local = 0.000745246, global = -5.03312e-05, cumulative = 2.50335e-05
smoothSolver:  Solving for omega, Initial residual = 0.0854717, Final residual = 0.000545867, No Iterations 1
smoothSolver:  Solving for k, Initial residual = 0.130591, Final residual = 0.000819861, No Iterations 1
smoothSolver:  Solving for ReThetat, Initial residual = 0.414153, Final residual = 2.10186e-07, No Iterations 1
smoothSolver:  Solving for gammaInt, Initial residual = 0.183624, Final residual = 0.170057, No Iterations 100
ExecutionTime = 16.75 s  ClockTime = 17 s

forceCoeffs forceCoeffs write:
    Coefficient	Total	Pressure	Viscous	Internal
    Cd:	1.07543	-0.00942865	1.08486	0
    Cd(f):	0.538721	-0.00370996	0.542431	0
    Cd(r):	0.536709	-0.0057187	0.542428	0
    Cl:	-0.173093	-0.000495491	-0.172597	0
    Cl(f):	-0.990305	-0.912863	-0.0774423	0
    Cl(r):	0.817212	0.912367	-0.0951549	0
    CmPitch:	-0.903759	-0.912615	0.00885629	0
    CmRoll:	0.0010059	0.00100437	1.52955e-06	0
    CmYaw:	0.00235133	0.00236852	-1.71837e-05	0
    Cs:	0.000124618	6.89171e-07	0.000123928	0
    Cs(f):	0.00241364	0.00236886	4.47806e-05	0
    Cs(r):	-0.00228903	-0.00236817	7.91479e-05	0

Time = 7

smoothSolver:  Solving for Ux, Initial residual = 0.0443117, Final residual = 0.000541481, No Iterations 1
smoothSolver:  Solving for Uy, Initial residual = 0.0392953, Final residual = 0.000465912, No Iterations 1
smoothSolver:  Solving for Uz, Initial residual = 0.0469662, Final residual = 0.000563163, No Iterations 1
GAMG:  Solving for p, Initial residual = 0.324155, Final residual = 0.030953, No Iterations 2
time step continuity errors : sum local = 0.00104756, global = -7.09179e-05, cumulative = -4.58844e-05
smoothSolver:  Solving for omega, Initial residual = 0.0727223, Final residual = 0.000472158, No Iterations 1
bounding omega, min: -0.805956 max: 522.518 average: 33.0801
smoothSolver:  Solving for k, Initial residual = 0.10621, Final residual = 0.000678297, No Iterations 1
smoothSolver:  Solving for ReThetat, Initial residual = 0.318652, Final residual = 1.52817e-07, No Iterations 1
smoothSolver:  Solving for gammaInt, Initial residual = 0.169029, Final residual = 0.156308, No Iterations 100
ExecutionTime = 18.89 s  ClockTime = 19 s

forceCoeffs forceCoeffs write:
    Coefficient	Total	Pressure	Viscous	Internal
    Cd:	1.68331	-0.00858656	1.69189	0
    Cd(f):	0.841371	-0.00457845	0.845949	0
    Cd(r):	0.841938	-0.00400811	0.845946	0
    Cl:	-0.116267	-0.000523845	-0.115743	0
    Cl(f):	-1.48474	-1.43496	-0.049784	0
    Cl(r):	1.36847	1.43443	-0.0659588	0
    CmPitch:	-1.42661	-1.43469	0.00808742	0
    CmRoll:	-0.000283474	-0.000285171	1.6962e-06	0
    CmYaw:	0.0036464	0.00366154	-1.51355e-05	0
    Cs:	-0.0017618	8.22405e-07	-0.00176263	0
    Cs(f):	0.0027655	0.00366195	-0.000896448	0
    Cs(r):	-0.00452731	-0.00366113	-0.000866177	0

Time = 8

smoothSolver:  Solving for Ux, Initial residual = 0.0717204, Final residual = 0.000891646, No Iterations 1
smoothSolver:  Solving for Uy, Initial residual = 0.0604622, Final residual = 0.000740833, No Iterations 1
smoothSolver:  Solving for Uz, Initial residual = 0.0709589, Final residual = 0.000864227, No Iterations 1
GAMG:  Solving for p, Initial residual = 0.502823, Final residual = 0.0372369, No Iterations 2
time step continuity errors : sum local = 0.00074634, global = -9.19415e-05, cumulative = -0.000137826
smoothSolver:  Solving for omega, Initial residual = 0.0631753, Final residual = 0.000416818, No Iterations 1
smoothSolver:  Solving for k, Initial residual = 0.0892259, Final residual = 0.0005793, No Iterations 1
smoothSolver:  Solving for ReThetat, Initial residual = 0.247697, Final residual = 1.11956e-07, No Iterations 1
smoothSolver:  Solving for gammaInt, Initial residual = 0.15676, Final residual = 0.142681, No Iterations 100
ExecutionTime = 21.06 s  ClockTime = 21 s

forceCoeffs forceCoeffs write:
    Coefficient	Total	Pressure	Viscous	Internal
    Cd:	1.53981	-0.00784184	1.54765	0
    Cd(f):	0.766972	-0.0068541	0.773826	0
    Cd(r):	0.772835	-0.000987738	0.773823	0
    Cl:	-0.0161093	-0.000519091	-0.0155902	0
    Cl(f):	-1.36925	-1.36886	-0.000388204	0
    Cl(r):	1.35314	1.36834	-0.015202	0
    CmPitch:	-1.36119	-1.3686	0.0074069	0
    CmRoll:	-0.00293174	-0.00293318	1.445e-06	0
    CmYaw:	0.00323883	0.00325229	-1.34587e-05	0
    Cs:	-0.00499509	4.64347e-07	-0.00499556	0
    Cs(f):	0.000741282	0.00325252	-0.00251124	0
    Cs(r):	-0.00573638	-0.00325206	-0.00248432	0

Time = 9

smoothSolver:  Solving for Ux, Initial residual = 0.0859797, Final residual = 0.00106223, No Iterations 1
smoothSolver:  Solving for Uy, Initial residual = 0.0665131, Final residual = 0.000824255, No Iterations 1
smoothSolver:  Solving for Uz, Initial residual = 0.0836182, Final residual = 0.00102263, No Iterations 1
GAMG:  Solving for p, Initial residual = 0.34431, Final residual = 0.026019, No Iterations 2
time step continuity errors : sum local = 0.000664753, global = -8.15298e-05, cumulative = -0.000219356
smoothSolver:  Solving for omega, Initial residual = 0.0558363, Final residual = 0.000373972, No Iterations 1
smoothSolver:  Solving for k, Initial residual = 0.0767359, Final residual = 0.000506305, No Iterations 1
smoothSolver:  Solving for ReThetat, Initial residual = 0.195657, Final residual = 8.32056e-08, No Iterations 1
smoothSolver:  Solving for gammaInt, Initial residual = 0.146485, Final residual = 0.133198, No Iterations 100
ExecutionTime = 23.18 s  ClockTime = 23 s

forceCoeffs forceCoeffs write:
    Coefficient	Total	Pressure	Viscous	Internal
    Cd:	0.947033	-0.007303	0.954336	0
    Cd(f):	0.468769	-0.00839952	0.477169	0
    Cd(r):	0.478264	0.00109653	0.477167	0
    Cl:	0.0731388	-0.000495395	0.0736341	0
    Cl(f):	-0.88129	-0.925029	0.0437391	0
    Cl(r):	0.954428	0.924533	0.029895	0
    CmPitch:	-0.917859	-0.924781	0.00692203	0
    CmRoll:	-0.00474723	-0.00474803	7.93261e-07	0
    CmYaw:	0.00184524	0.00185758	-1.23418e-05	0
    Cs:	-0.00718851	-3.79842e-07	-0.00718813	0
    Cs(f):	-0.00174902	0.00185739	-0.00360641	0
    Cs(r):	-0.00543949	-0.00185777	-0.00358173	0

Time = 10

smoothSolver:  Solving for Ux, Initial residual = 0.0862328, Final residual = 0.00104953, No Iterations 1
smoothSolver:  Solving for Uy, Initial residual = 0.0571628, Final residual = 0.000706938, No Iterations 1
smoothSolver:  Solving for Uz, Initial residual = 0.0828519, Final residual = 0.00100538, No Iterations 1
GAMG:  Solving for p, Initial residual = 0.228835, Final residual = 0.0213919, No Iterations 2
time step continuity errors : sum local = 0.00072819, global = -3.92132e-05, cumulative = -0.000258569
smoothSolver:  Solving for omega, Initial residual = 0.0499757, Final residual = 0.000339707, No Iterations 1
bounding omega, min: -1.00674 max: 541.024 average: 32.7612
smoothSolver:  Solving for k, Initial residual = 0.0671996, Final residual = 0.000450347, No Iterations 1
smoothSolver:  Solving for ReThetat, Initial residual = 0.157395, Final residual = 6.29137e-08, No Iterations 1
smoothSolver:  Solving for gammaInt, Initial residual = 0.137733, Final residual = 0.125268, No Iterations 100
ExecutionTime = 25.39 s  ClockTime = 25 s

forceCoeffs forceCoeffs write:
    Coefficient	Total	Pressure	Viscous	Internal
    Cd:	0.220866	-0.00699917	0.227866	0
    Cd(f):	0.105803	-0.00812979	0.113933	0
    Cd(r):	0.115063	0.00113063	0.113933	0
    Cl:	0.106402	-0.000468763	0.106871	0
    Cl(f):	-0.274507	-0.334604	0.0600966	0
    Cl(r):	0.380909	0.334135	0.0467742	0
    CmPitch:	-0.327708	-0.334369	0.00666118	0
    CmRoll:	-0.00463019	-0.00463021	1.82275e-08	0
    CmYaw:	0.000194283	0.000206106	-1.18228e-05	0
    Cs:	-0.00658553	-1.38693e-06	-0.00658414	0
    Cs(f):	-0.00309848	0.000205412	-0.00330389	0
    Cs(r):	-0.00348705	-0.000206799	-0.00328025	0

Time = 11

smoothSolver:  Solving for Ux, Initial residual = 0.0684715, Final residual = 0.000819096, No Iterations 1
smoothSolver:  Solving for Uy, Initial residual = 0.0375566, Final residual = 0.000452114, No Iterations 1
smoothSolver:  Solving for Uz, Initial residual = 0.0662681, Final residual = 0.000780496, No Iterations 1
GAMG:  Solving for p, Initial residual = 0.181053, Final residual = 0.00924946, No Iterations 3
time step continuity errors : sum local = 0.000362835, global = 9.83237e-06, cumulative = -0.000248737
smoothSolver:  Solving for omega, Initial residual = 0.0451408, Final residual = 0.000311472, No Iterations 1
bounding omega, min: -1.91482 max: 556.355 average: 32.6542
smoothSolver:  Solving for k, Initial residual = 0.0597245, Final residual = 0.000406052, No Iterations 1
smoothSolver:  Solving for ReThetat, Initial residual = 0.128976, Final residual = 4.84277e-08, No Iterations 1
smoothSolver:  Solving for gammaInt, Initial residual = 0.129282, Final residual = 0.116501, No Iterations 100
ExecutionTime = 27.59 s  ClockTime = 28 s

forceCoeffs forceCoeffs write:
    Coefficient	Total	Pressure	Viscous	Internal
    Cd:	-0.409552	-0.0069	-0.402652	0
    Cd(f):	-0.206414	-0.00508699	-0.201327	0
    Cd(r):	-0.203139	-0.00181301	-0.201326	0
    Cl:	0.072041	-0.000453171	0.0724942	0
    Cl(f):	0.256831	0.21399	0.0428408	0
    Cl(r):	-0.18479	-0.214443	0.0296534	0
    CmPitch:	0.22081	0.214217	0.00659371	0
    CmRoll:	-0.0016373	-0.00163699	-3.0393e-07	0
    CmYaw:	-0.00119951	-0.00118766	-1.18472e-05	0
    Cs:	-0.00130144	-1.93074e-06	-0.00129951	0
    Cs(f):	-0.00185023	-0.00118863	-0.000661602	0
    Cs(r):	0.000548791	0.0011867	-0.000637907	0

Time = 12

smoothSolver:  Solving for Ux, Initial residual = 0.0437046, Final residual = 0.000518135, No Iterations 1
smoothSolver:  Solving for Uy, Initial residual = 0.0254537, Final residual = 0.000294209, No Iterations 1
smoothSolver:  Solving for Uz, Initial residual = 0.046397, Final residual = 0.000537048, No Iterations 1
GAMG:  Solving for p, Initial residual = 0.189476, Final residual = 0.00856073, No Iterations 3
time step continuity errors : sum local = 0.000299509, global = 1.99197e-05, cumulative = -0.000228817
smoothSolver:  Solving for omega, Initial residual = 0.0410845, Final residual = 0.000287751, No Iterations 1
smoothSolver:  Solving for k, Initial residual = 0.0536313, Final residual = 0.000369876, No Iterations 1
smoothSolver:  Solving for ReThetat, Initial residual = 0.107579, Final residual = 3.79874e-08, No Iterations 1
smoothSolver:  Solving for gammaInt, Initial residual = 0.122981, Final residual = 0.111715, No Iterations 100
ExecutionTime = 29.73 s  ClockTime = 30 s

forceCoeffs forceCoeffs write:
    Coefficient	Total	Pressure	Viscous	Internal
    Cd:	-0.723735	-0.00691395	-0.716821	0
    Cd(f):	-0.360784	-0.00237301	-0.358411	0
    Cd(r):	-0.362952	-0.00454095	-0.358411	0
    Cl:	0.0280091	-0.000455697	0.0284648	0
    Cl(f):	0.529367	0.508503	0.0208633	0
    Cl(r):	-0.501357	-0.508959	0.00760151	0
    CmPitch:	0.515362	0.508731	0.00663091	0
    CmRoll:	0.00108391	0.00108397	-6.31188e-08	0
    CmYaw:	-0.00187002	-0.00185787	-1.21481e-05	0
    Cs:	0.00298019	-1.88067e-06	0.00298207	0
    Cs(f):	-0.000379922	-0.00185881	0.00147889	0
    Cs(r):	0.00336011	0.00185693	0.00150318	0

Time = 13

smoothSolver:  Solving for Ux, Initial residual = 0.045606, Final residual = 0.000560403, No Iterations 1
smoothSolver:  Solving for Uy, Initial residual = 0.0305578, Final residual = 0.000369304, No Iterations 1
smoothSolver:  Solving for Uz, Initial residual = 0.0462561, Final residual = 0.000555179, No Iterations 1
GAMG:  Solving for p, Initial residual = 0.26866, Final residual = 0.0216441, No Iterations 2
time step continuity errors : sum local = 0.000494497, global = 5.08819e-05, cumulative = -0.000177935
smoothSolver:  Solving for omega, Initial residual = 0.0376384, Final residual = 0.000267473, No Iterations 1
bounding omega, min: -0.90401 max: 586.03 average: 32.4427
smoothSolver:  Solving for k, Initial residual = 0.0485661, Final residual = 0.000339764, No Iterations 1
smoothSolver:  Solving for ReThetat, Initial residual = 0.0912347, Final residual = 3.04016e-08, No Iterations 1
smoothSolver:  Solving for gammaInt, Initial residual = 0.118065, Final residual = 0.107713, No Iterations 100
ExecutionTime = 31.86 s  ClockTime = 32 s

forceCoeffs forceCoeffs write:
    Coefficient	Total	Pressure	Viscous	Internal
    Cd:	-0.730042	-0.00694377	-0.723098	0
    Cd(f):	-0.362195	-0.000646074	-0.361549	0
    Cd(r):	-0.367847	-0.00629769	-0.36155	0
    Cl:	0.00460446	-0.000473744	0.0050782	0
    Cl(f):	0.543481	0.534262	0.00921823	0
    Cl(r):	-0.538876	-0.534736	-0.00414003	0
    CmPitch:	0.541178	0.534499	0.00667913	0
    CmRoll:	0.0028264	0.00282581	5.91819e-07	0
    CmYaw:	-0.00184791	-0.00183544	-1.24777e-05	0
    Cs:	0.00542529	-1.36847e-06	0.00542666	0
    Cs(f):	0.00086473	-0.00183612	0.00270085	0
    Cs(r):	0.00456056	0.00183475	0.00272581	0

Time = 14

smoothSolver:  Solving for Ux, Initial residual = 0.045609, Final residual = 0.000560441, No Iterations 1
smoothSolver:  Solving for Uy, Initial residual = 0.0308813, Final residual = 0.000381848, No Iterations 1
smoothSolver:  Solving for Uz, Initial residual = 0.0454902, Final residual = 0.000553369, No Iterations 1
GAMG:  Solving for p, Initial residual = 0.401704, Final residual = 0.0300075, No Iterations 2
time step continuity errors : sum local = 0.000408106, global = 7.33152e-05, cumulative = -0.00010462
smoothSolver:  Solving for omega, Initial residual = 0.0346685, Final residual = 0.000249829, No Iterations 1
bounding omega, min: -1.50926 max: 599.203 average: 32.3392
smoothSolver:  Solving for k, Initial residual = 0.0442933, Final residual = 0.000314266, No Iterations 1
smoothSolver:  Solving for ReThetat, Initial residual = 0.0785689, Final residual = 2.4838e-08, No Iterations 1
smoothSolver:  Solving for gammaInt, Initial residual = 0.112496, Final residual = 0.102233, No Iterations 100
ExecutionTime = 33.99 s  ClockTime = 34 s

forceCoeffs forceCoeffs write:
    Coefficient	Total	Pressure	Viscous	Internal
    Cd:	-0.569001	-0.00692895	-0.562072	0
    Cd(f):	-0.280856	0.000179046	-0.281035	0
    Cd(r):	-0.288145	-0.00710799	-0.281037	0
    Cl:	-0.00218194	-0.000500554	-0.00168139	0
    Cl(f):	0.410846	0.405006	0.00584001	0
    Cl(r):	-0.413028	-0.405507	-0.00752139	0
    CmPitch:	0.411937	0.405257	0.0066807	0
    CmRoll:	0.00364496	0.00364352	1.44166e-06	0
    CmYaw:	-0.00146217	-0.0014495	-1.26726e-05	0
    Cs:	0.00618447	-5.90434e-07	0.00618506	0
    Cs(f):	0.00163006	-0.0014498	0.00307986	0
    Cs(r):	0.00455441	0.00144921	0.0031052	0

Time = 15

smoothSolver:  Solving for Ux, Initial residual = 0.0407415, Final residual = 0.000497209, No Iterations 1
smoothSolver:  Solving for Uy, Initial residual = 0.0266918, Final residual = 0.000329605, No Iterations 1
smoothSolver:  Solving for Uz, Initial residual = 0.0399897, Final residual = 0.000487678, No Iterations 1
GAMG:  Solving for p, Initial residual = 0.239469, Final residual = 0.0194953, No Iterations 2
time step continuity errors : sum local = 0.0003827, global = 5.20264e-05, cumulative = -5.25933e-05
smoothSolver:  Solving for omega, Initial residual = 0.0320861, Final residual = 0.000234384, No Iterations 1
bounding omega, min: -2.56114 max: 611.15 average: 32.2373
smoothSolver:  Solving for k, Initial residual = 0.0406249, Final residual = 0.000292224, No Iterations 1
smoothSolver:  Solving for ReThetat, Initial residual = 0.068607, Final residual = 2.06964e-08, No Iterations 1
smoothSolver:  Solving for gammaInt, Initial residual = 0.108872, Final residual = 0.0991193, No Iterations 100
ExecutionTime = 36.09 s  ClockTime = 36 s

forceCoeffs forceCoeffs write:
    Coefficient	Total	Pressure	Viscous	Internal
    Cd:	-0.331966	-0.00684065	-0.325126	0
    Cd(f):	-0.162713	-0.000152592	-0.162561	0
    Cd(r):	-0.169253	-0.00668806	-0.162565	0
    Cl:	0.0186374	-0.000527653	0.0191651	0
    Cl(f):	0.211003	0.194811	0.0161923	0
    Cl(r):	-0.192366	-0.195338	0.00297273	0
    CmPitch:	0.201684	0.195075	0.0066098	0
    CmRoll:	0.00326993	0.00326773	2.20057e-06	0
    CmYaw:	-0.000921017	-0.000908347	-1.26698e-05	0
    Cs:	0.00517282	1.78572e-07	0.00517264	0
    Cs(f):	0.00166539	-0.000908258	0.00257365	0
    Cs(r):	0.00350743	0.000908436	0.00259899	0

Time = 16

smoothSolver:  Solving for Ux, Initial residual = 0.0323354, Final residual = 0.000389462, No Iterations 1
smoothSolver:  Solving for Uy, Initial residual = 0.0198016, Final residual = 0.00023948, No Iterations 1
smoothSolver:  Solving for Uz, Initial residual = 0.0312037, Final residual = 0.000374326, No Iterations 1
GAMG:  Solving for p, Initial residual = 0.142852, Final residual = 0.0136682, No Iterations 2
time step continuity errors : sum local = 0.000390916, global = 1.91293e-05, cumulative = -3.34641e-05
smoothSolver:  Solving for omega, Initial residual = 0.0298374, Final residual = 0.000220952, No Iterations 1
bounding omega, min: -2.49356 max: 621.74 average: 32.137
smoothSolver:  Solving for k, Initial residual = 0.0374691, Final residual = 0.00027312, No Iterations 1
smoothSolver:  Solving for ReThetat, Initial residual = 0.0606577, Final residual = 1.75726e-08, No Iterations 1
smoothSolver:  Solving for gammaInt, Initial residual = 0.106806, Final residual = 0.096535, No Iterations 100
ExecutionTime = 38.21 s  ClockTime = 38 s

forceCoeffs forceCoeffs write:
    Coefficient	Total	Pressure	Viscous	Internal
    Cd:	-0.114777	-0.00668252	-0.108095	0
    Cd(f):	-0.0555295	-0.00148475	-0.0540447	0
    Cd(r):	-0.0592477	-0.00519776	-0.05405	0
    Cl:	0.0507092	-0.000547884	0.0512571	0
    Cl(f):	0.0239667	-0.00813361	0.0321003	0
    Cl(r):	0.0267425	0.00758572	0.0191568	0
    CmPitch:	-0.00138789	-0.00785966	0.00647177	0
    CmRoll:	0.00185913	0.00185651	2.62376e-06	0
    CmYaw:	-0.000434606	-0.000422124	-1.24821e-05	0
    Cs:	0.00281988	6.78836e-07	0.0028192	0
    Cs(f):	0.000975334	-0.000421784	0.00139712	0
    Cs(r):	0.00184455	0.000422463	0.00142208	0

Time = 17

smoothSolver:  Solving for Ux, Initial residual = 0.0230577, Final residual = 0.000271462, No Iterations 1
smoothSolver:  Solving for Uy, Initial residual = 0.0142234, Final residual = 0.000168426, No Iterations 1
smoothSolver:  Solving for Uz, Initial residual = 0.0228356, Final residual = 0.000266472, No Iterations 1
GAMG:  Solving for p, Initial residual = 0.106935, Final residual = 0.00472516, No Iterations 3
time step continuity errors : sum local = 0.000161013, global = 3.02324e-07, cumulative = -3.31617e-05
smoothSolver:  Solving for omega, Initial residual = 0.0278667, Final residual = 0.000208931, No Iterations 1
bounding omega, min: -0.904009 max: 630.803 average: 32.038
smoothSolver:  Solving for k, Initial residual = 0.0347355, Final residual = 0.000256496, No Iterations 1
smoothSolver:  Solving for ReThetat, Initial residual = 0.0542214, Final residual = 1.51861e-08, No Iterations 1
smoothSolver:  Solving for gammaInt, Initial residual = 0.101312, Final residual = 0.0922353, No Iterations 100
ExecutionTime = 40.43 s  ClockTime = 41 s

forceCoeffs forceCoeffs write:
    Coefficient	Total	Pressure	Viscous	Internal
    Cd:	0.0363195	-0.00647742	0.0427969	0
    Cd(f):	0.0177372	-0.00366378	0.021401	0
    Cd(r):	0.0185823	-0.00281364	0.0213959	0
    Cl:	0.0785322	-0.000557665	0.0790899	0
    Cl(f):	-0.109835	-0.15567	0.0458346	0
    Cl(r):	0.188368	0.155112	0.0332553	0
    CmPitch:	-0.149101	-0.155391	0.00628961	0
    CmRoll:	-0.000422554	-0.000425072	2.51783e-06	0
    CmYaw:	-0.000101711	-8.9546e-05	-1.21652e-05	0
    Cs:	-0.000692767	6.91457e-07	-0.000693459	0
    Cs(f):	-0.000448095	-8.92003e-05	-0.000358894	0
    Cs(r):	-0.000244672	8.98917e-05	-0.000334564	0

Time = 18

smoothSolver:  Solving for Ux, Initial residual = 0.0195466, Final residual = 0.00023123, No Iterations 1
smoothSolver:  Solving for Uy, Initial residual = 0.0133475, Final residual = 0.000159348, No Iterations 1
smoothSolver:  Solving for Uz, Initial residual = 0.0191725, Final residual = 0.000222611, No Iterations 1
GAMG:  Solving for p, Initial residual = 0.101165, Final residual = 0.00949062, No Iterations 2
time step continuity errors : sum local = 0.000311889, global = -2.10125e-05, cumulative = -5.41743e-05
smoothSolver:  Solving for omega, Initial residual = 0.0261227, Final residual = 0.00019812, No Iterations 1
bounding omega, min: -1.62036 max: 638.227 average: 31.9399
smoothSolver:  Solving for k, Initial residual = 0.0323506, Final residual = 0.000241923, No Iterations 1
smoothSolver:  Solving for ReThetat, Initial residual = 0.0489297, Final residual = 1.33294e-08, No Iterations 1
smoothSolver:  Solving for gammaInt, Initial residual = 0.0994938, Final residual = 0.0891726, No Iterations 100
ExecutionTime = 42.62 s  ClockTime = 43 s

forceCoeffs forceCoeffs write:
    Coefficient	Total	Pressure	Viscous	Internal
    Cd:	0.0749988	-0.00626342	0.0812622	0
    Cd(f):	0.0356999	-0.00493323	0.0406332	0
    Cd(r):	0.0392988	-0.00133019	0.040629	0
    Cl:	0.0780828	-0.000557949	0.0786407	0
    Cl(f):	-0.152234	-0.197653	0.0454198	0
    Cl(r):	0.230316	0.197095	0.0332209	0
    CmPitch:	-0.191275	-0.197374	0.00609945	0
    CmRoll:	-0.00179945	-0.00180152	2.06709e-06	0
    CmYaw:	-1.84441e-05	-6.61576e-06	-1.18284e-05	0
    Cs:	-0.00262117	3.61617e-07	-0.00262153	0
    Cs(f):	-0.00132903	-6.43495e-06	-0.00132259	0
    Cs(r):	-0.00129214	6.79657e-06	-0.00129894	0

Time = 19

smoothSolver:  Solving for Ux, Initial residual = 0.0204737, Final residual = 0.000245073, No Iterations 1
smoothSolver:  Solving for Uy, Initial residual = 0.0144646, Final residual = 0.000177132, No Iterations 1
smoothSolver:  Solving for Uz, Initial residual = 0.0200358, Final residual = 0.000235901, No Iterations 1
GAMG:  Solving for p, Initial residual = 0.109013, Final residual = 0.00904482, No Iterations 2
time step continuity errors : sum local = 0.000252762, global = -3.94875e-05, cumulative = -9.36618e-05
smoothSolver:  Solving for omega, Initial residual = 0.0245714, Final residual = 0.000188324, No Iterations 1
bounding omega, min: -2.1811 max: 643.966 average: 31.8432
smoothSolver:  Solving for k, Initial residual = 0.0302562, Final residual = 0.000228895, No Iterations 1
smoothSolver:  Solving for ReThetat, Initial residual = 0.044531, Final residual = 1.18595e-08, No Iterations 1
smoothSolver:  Solving for gammaInt, Initial residual = 0.119276, Final residual = 0.105351, No Iterations 100
ExecutionTime = 44.74 s  ClockTime = 45 s

forceCoeffs forceCoeffs write:
    Coefficient	Total	Pressure	Viscous	Internal
    Cd:	0.0429814	-0.00606792	0.0490493	0
    Cd(f):	0.0191393	-0.00538685	0.0245262	0
    Cd(r):	0.0238421	-0.000681068	0.0245232	0
    Cl:	0.0624678	-0.000552595	0.0630204	0
    Cl(f):	-0.132595	-0.170032	0.0374371	0
    Cl(r):	0.195062	0.169479	0.0255833	0
    CmPitch:	-0.163828	-0.169755	0.00592688	0
    CmRoll:	-0.0023514	-0.00235289	1.49288e-06	0
    CmYaw:	-8.92923e-05	-7.77388e-05	-1.15535e-05	0
    Cs:	-0.00330603	-1.21301e-07	-0.00330591	0
    Cs(f):	-0.00174231	-7.77994e-05	-0.00166451	0
    Cs(r):	-0.00156372	7.76781e-05	-0.0016414	0

Time = 20

smoothSolver:  Solving for Ux, Initial residual = 0.0203719, Final residual = 0.000244304, No Iterations 1
smoothSolver:  Solving for Uy, Initial residual = 0.013538, Final residual = 0.000166583, No Iterations 1
smoothSolver:  Solving for Uz, Initial residual = 0.0201821, Final residual = 0.000236904, No Iterations 1
GAMG:  Solving for p, Initial residual = 0.126292, Final residual = 0.0102814, No Iterations 2
time step continuity errors : sum local = 0.000218705, global = -4.16138e-05, cumulative = -0.000135276
smoothSolver:  Solving for omega, Initial residual = 0.0231715, Final residual = 0.000179284, No Iterations 1
bounding omega, min: -2.48833 max: 648.118 average: 31.7469
smoothSolver:  Solving for k, Initial residual = 0.0284, Final residual = 0.000217182, No Iterations 1
smoothSolver:  Solving for ReThetat, Initial residual = 0.0408312, Final residual = 1.06713e-08, No Iterations 1
smoothSolver:  Solving for gammaInt, Initial residual = 0.0937861, Final residual = 0.0845332, No Iterations 100
ExecutionTime = 46.83 s  ClockTime = 47 s

forceCoeffs forceCoeffs write:
    Coefficient	Total	Pressure	Viscous	Internal
    Cd:	-0.0294052	-0.00590483	-0.0235003	0
    Cd(f):	-0.0168221	-0.00507294	-0.0117492	0
    Cd(r):	-0.0125831	-0.000831891	-0.0117512	0
    Cl:	0.03592	-0.00054613	0.0364662	0
    Cl(f):	-0.0766478	-0.100666	0.0240177	0
    Cl(r):	0.112568	0.100119	0.0124484	0
    CmPitch:	-0.0946079	-0.100392	0.00578463	0
    CmRoll:	-0.00211953	-0.00212052	9.93164e-07	0
    CmYaw:	-0.000246312	-0.00023496	-1.13513e-05	0
    Cs:	-0.00287871	-5.83968e-07	-0.00287812	0
    Cs(f):	-0.00168566	-0.000235252	-0.00145041	0
    Cs(r):	-0.00119304	0.000234668	-0.00142771	0

Time = 21

smoothSolver:  Solving for Ux, Initial residual = 0.0189683, Final residual = 0.000226679, No Iterations 1
smoothSolver:  Solving for Uy, Initial residual = 0.0111592, Final residual = 0.000134352, No Iterations 1
smoothSolver:  Solving for Uz, Initial residual = 0.0184834, Final residual = 0.000214249, No Iterations 1
GAMG:  Solving for p, Initial residual = 0.179579, Final residual = 0.0157734, No Iterations 2
time step continuity errors : sum local = 0.000207929, global = -2.38595e-05, cumulative = -0.000159135
smoothSolver:  Solving for omega, Initial residual = 0.0219001, Final residual = 0.000171021, No Iterations 1
bounding omega, min: -2.0502 max: 650.841 average: 31.6516
smoothSolver:  Solving for k, Initial residual = 0.0267506, Final residual = 0.000206542, No Iterations 1
smoothSolver:  Solving for ReThetat, Initial residual = 0.0376833, Final residual = 9.69397e-09, No Iterations 1
smoothSolver:  Solving for gammaInt, Initial residual = 0.0913383, Final residual = 0.0820996, No Iterations 100
ExecutionTime = 48.92 s  ClockTime = 49 s

forceCoeffs forceCoeffs write:
    Coefficient	Total	Pressure	Viscous	Internal
    Cd:	-0.110984	-0.00577686	-0.105207	0
    Cd(f):	-0.0568202	-0.00421747	-0.0526027	0
    Cd(r):	-0.0541635	-0.00155939	-0.0526042	0
    Cl:	0.0106567	-0.000542481	0.0111991	0
    Cl(f):	-0.00930215	-0.0205766	0.0112744	0
    Cl(r):	0.0199588	0.0200341	-7.52667e-05	0
    CmPitch:	-0.0146305	-0.0203053	0.00567484	0
    CmRoll:	-0.00132833	-0.00132904	7.09859e-07	0
    CmYaw:	-0.000422571	-0.00041135	-1.1221e-05	0
    Cs:	-0.00170605	-8.90655e-07	-0.00170516	0
    Cs(f):	-0.0012756	-0.000411795	-0.000863803	0
    Cs(r):	-0.000430456	0.000410905	-0.000841361	0

Time = 22

smoothSolver:  Solving for Ux, Initial residual = 0.0163507, Final residual = 0.00019284, No Iterations 1
smoothSolver:  Solving for Uy, Initial residual = 0.00886501, Final residual = 0.000104183, No Iterations 1
smoothSolver:  Solving for Uz, Initial residual = 0.0157562, Final residual = 0.000177538, No Iterations 1
GAMG:  Solving for p, Initial residual = 0.172728, Final residual = 0.0159732, No Iterations 2
time step continuity errors : sum local = 0.000197436, global = -4.90336e-06, cumulative = -0.000164038
smoothSolver:  Solving for omega, Initial residual = 0.020743, Final residual = 0.000163461, No Iterations 1
bounding omega, min: -2.37564 max: 652.361 average: 31.5572
smoothSolver:  Solving for k, Initial residual = 0.0252626, Final residual = 0.000196826, No Iterations 1
smoothSolver:  Solving for ReThetat, Initial residual = 0.034977, Final residual = 8.88144e-09, No Iterations 1
smoothSolver:  Solving for gammaInt, Initial residual = 0.0899235, Final residual = 0.0795617, No Iterations 100
ExecutionTime = 51.16 s  ClockTime = 51 s

forceCoeffs forceCoeffs write:
    Coefficient	Total	Pressure	Viscous	Internal
    Cd:	-0.175556	-0.00567744	-0.169879	0
    Cd(f):	-0.0881234	-0.00318457	-0.0849388	0
    Cd(r):	-0.0874331	-0.00249286	-0.0849402	0
    Cl:	-0.00102198	-0.000543856	-0.000478127	0
    Cl(f):	0.0485669	0.0432151	0.00535179	0
    Cl(r):	-0.0495889	-0.0437589	-0.00582992	0
    CmPitch:	0.0490779	0.043487	0.00559085	0
    CmRoll:	-0.000345159	-0.000345853	6.94843e-07	0
    CmYaw:	-0.000561692	-0.000550554	-1.1138e-05	0
    Cs:	-0.000276697	-9.84112e-07	-0.000275713	0
    Cs(f):	-0.00070004	-0.000551046	-0.000148994	0
    Cs(r):	0.000423343	0.000550062	-0.000126718	0

Time = 23

smoothSolver:  Solving for Ux, Initial residual = 0.0145093, Final residual = 0.000170578, No Iterations 1
smoothSolver:  Solving for Uy, Initial residual = 0.0083023, Final residual = 9.80698e-05, No Iterations 1
smoothSolver:  Solving for Uz, Initial residual = 0.0140266, Final residual = 0.00015508, No Iterations 1
GAMG:  Solving for p, Initial residual = 0.122963, Final residual = 0.0117718, No Iterations 2
time step continuity errors : sum local = 0.000186081, global = 7.41012e-06, cumulative = -0.000156628
smoothSolver:  Solving for omega, Initial residual = 0.0196919, Final residual = 0.000156485, No Iterations 1
bounding omega, min: -0.825195 max: 652.929 average: 31.4636
smoothSolver:  Solving for k, Initial residual = 0.0239104, Final residual = 0.000187934, No Iterations 1
smoothSolver:  Solving for ReThetat, Initial residual = 0.0326281, Final residual = 8.20329e-09, No Iterations 1
smoothSolver:  Solving for gammaInt, Initial residual = 0.0874844, Final residual = 0.0786432, No Iterations 100
ExecutionTime = 53.62 s  ClockTime = 54 s

forceCoeffs forceCoeffs write:
    Coefficient	Total	Pressure	Viscous	Internal
    Cd:	-0.210103	-0.00559535	-0.204507	0
    Cd(f):	-0.104574	-0.002321	-0.102253	0
    Cd(r):	-0.105529	-0.00327435	-0.102255	0
    Cl:	0.00485195	-0.00055031	0.00540226	0
    Cl(f):	0.0851093	0.0768862	0.00822313	0
    Cl(r):	-0.0802574	-0.0774365	-0.00282087	0
    CmPitch:	0.0826834	0.0771614	0.005522	0
    CmRoll:	0.000477577	0.000476672	9.04776e-07	0
    CmYaw:	-0.000636097	-0.000625012	-1.10853e-05	0
    Cs:	0.000963249	-8.90878e-07	0.00096414	0
    Cs(f):	-0.000154473	-0.000625457	0.000470985	0
    Cs(r):	0.00111772	0.000624567	0.000493155	0

Time = 24

smoothSolver:  Solving for Ux, Initial residual = 0.0141186, Final residual = 0.000167151, No Iterations 1
smoothSolver:  Solving for Uy, Initial residual = 0.00856037, Final residual = 0.000102136, No Iterations 1
smoothSolver:  Solving for Uz, Initial residual = 0.0134995, Final residual = 0.00015239, No Iterations 1
GAMG:  Solving for p, Initial residual = 0.11407, Final residual = 0.0105977, No Iterations 2
time step continuity errors : sum local = 0.000162024, global = 1.33979e-05, cumulative = -0.00014323
smoothSolver:  Solving for omega, Initial residual = 0.0187323, Final residual = 0.000150061, No Iterations 1
bounding omega, min: -2.97443 max: 652.776 average: 31.3707
smoothSolver:  Solving for k, Initial residual = 0.0226789, Final residual = 0.000179791, No Iterations 1
smoothSolver:  Solving for ReThetat, Initial residual = 0.0305719, Final residual = 7.6364e-09, No Iterations 1
smoothSolver:  Solving for gammaInt, Initial residual = 0.0855225, Final residual = 0.0763049, No Iterations 100
ExecutionTime = 55.89 s  ClockTime = 56 s

forceCoeffs forceCoeffs write:
    Coefficient	Total	Pressure	Viscous	Internal
    Cd:	-0.214886	-0.0055195	-0.209366	0
    Cd(f):	-0.106555	-0.00187301	-0.104682	0
    Cd(r):	-0.108331	-0.00364649	-0.104684	0
    Cl:	0.023117	-0.000560234	0.0236773	0
    Cl(f):	0.0977587	0.0804622	0.0172965	0
    Cl(r):	-0.0746417	-0.0810224	0.00638074	0
    CmPitch:	0.0862002	0.0807423	0.00545789	0
    CmRoll:	0.000887977	0.000886741	1.23592e-06	0
    CmYaw:	-0.00064633	-0.000635299	-1.10315e-05	0
    Cs:	0.00168561	-6.88046e-07	0.0016863	0
    Cs(f):	0.000196474	-0.000635643	0.000832116	0
    Cs(r):	0.00148913	0.000634955	0.000854179	0

Time = 25

smoothSolver:  Solving for Ux, Initial residual = 0.0137489, Final residual = 0.000163635, No Iterations 1
smoothSolver:  Solving for Uy, Initial residual = 0.00848898, Final residual = 0.000102001, No Iterations 1
smoothSolver:  Solving for Uz, Initial residual = 0.0132123, Final residual = 0.000152261, No Iterations 1
GAMG:  Solving for p, Initial residual = 0.131616, Final residual = 0.011432, No Iterations 2
time step continuity errors : sum local = 0.000134354, global = 2.35598e-05, cumulative = -0.000119671
smoothSolver:  Solving for omega, Initial residual = 0.0178504, Final residual = 0.000144194, No Iterations 1
smoothSolver:  Solving for k, Initial residual = 0.0215552, Final residual = 0.00017228, No Iterations 1
smoothSolver:  Solving for ReThetat, Initial residual = 0.028758, Final residual = 7.16032e-09, No Iterations 1
smoothSolver:  Solving for gammaInt, Initial residual = 0.0848623, Final residual = 0.0750459, No Iterations 100
ExecutionTime = 58.22 s  ClockTime = 59 s

forceCoeffs forceCoeffs write:
    Coefficient	Total	Pressure	Viscous	Internal
    Cd:	-0.199088	-0.00544205	-0.193646	0
    Cd(f):	-0.0987465	-0.00192494	-0.0968216	0
    Cd(r):	-0.100342	-0.00351711	-0.0968247	0
    Cl:	0.045196	-0.000571396	0.0457674	0
    Cl(f):	0.0915869	0.063312	0.0282749	0
    Cl(r):	-0.0463909	-0.0638833	0.0174924	0
    CmPitch:	0.0689889	0.0635976	0.00539125	0
    CmRoll:	0.000797636	0.000796082	1.55442e-06	0
    CmYaw:	-0.000612774	-0.000601811	-1.09637e-05	0
    Cs:	0.00174868	-4.87084e-07	0.00174917	0
    Cs(f):	0.000261567	-0.000602054	0.000863621	0
    Cs(r):	0.00148712	0.000601567	0.000885548	0

Time = 26

smoothSolver:  Solving for Ux, Initial residual = 0.0132257, Final residual = 0.000158195, No Iterations 1
smoothSolver:  Solving for Uy, Initial residual = 0.00786253, Final residual = 9.37145e-05, No Iterations 1
smoothSolver:  Solving for Uz, Initial residual = 0.01243, Final residual = 0.000144132, No Iterations 1
GAMG:  Solving for p, Initial residual = 0.136381, Final residual = 0.011668, No Iterations 2
time step continuity errors : sum local = 0.000117206, global = 2.06447e-05, cumulative = -9.9026e-05
smoothSolver:  Solving for omega, Initial residual = 0.0170346, Final residual = 0.000138757, No Iterations 1
smoothSolver:  Solving for k, Initial residual = 0.0205213, Final residual = 0.000165289, No Iterations 1
smoothSolver:  Solving for ReThetat, Initial residual = 0.0271458, Final residual = 6.75685e-09, No Iterations 1
smoothSolver:  Solving for gammaInt, Initial residual = 0.0823347, Final residual = 0.072862, No Iterations 100
ExecutionTime = 60.84 s  ClockTime = 61 s

forceCoeffs forceCoeffs write:
    Coefficient	Total	Pressure	Viscous	Internal
    Cd:	-0.172529	-0.0053591	-0.16717	0
    Cd(f):	-0.0859041	-0.00232089	-0.0835832	0
    Cd(r):	-0.0866249	-0.00303821	-0.0835867	0
    Cl:	0.0650624	-0.000581803	0.0656442	0
    Cl(f):	0.0740214	0.0358808	0.0381405	0
    Cl(r):	-0.00895899	-0.0364626	0.0275037	0
    CmPitch:	0.0414902	0.0361717	0.00531845	0
    CmRoll:	0.000360415	0.00035866	1.75472e-06	0
    CmYaw:	-0.000556038	-0.000545163	-1.08755e-05	0
    Cs:	0.00131727	-3.79411e-07	0.00131765	0
    Cs(f):	0.000102596	-0.000545352	0.000647949	0
    Cs(r):	0.00121467	0.000544973	0.0006697	0

Time = 27

smoothSolver:  Solving for Ux, Initial residual = 0.0118355, Final residual = 0.000141061, No Iterations 1
smoothSolver:  Solving for Uy, Initial residual = 0.00675462, Final residual = 7.89676e-05, No Iterations 1
smoothSolver:  Solving for Uz, Initial residual = 0.0110177, Final residual = 0.000126436, No Iterations 1
GAMG:  Solving for p, Initial residual = 0.0815971, Final residual = 0.00710234, No Iterations 2
time step continuity errors : sum local = 0.000107512, global = 9.95701e-06, cumulative = -8.9069e-05
smoothSolver:  Solving for omega, Initial residual = 0.0162865, Final residual = 0.000133754, No Iterations 1
bounding omega, min: -3.07419 max: 649.754 average: 31.0976
smoothSolver:  Solving for k, Initial residual = 0.0195708, Final residual = 0.000158864, No Iterations 1
smoothSolver:  Solving for ReThetat, Initial residual = 0.0257023, Final residual = 6.41013e-09, No Iterations 1
smoothSolver:  Solving for gammaInt, Initial residual = 0.0801114, Final residual = 0.0718043, No Iterations 100
ExecutionTime = 63.15 s  ClockTime = 64 s

forceCoeffs forceCoeffs write:
    Coefficient	Total	Pressure	Viscous	Internal
    Cd:	-0.145361	-0.00527056	-0.14009	0
    Cd(f):	-0.0728868	-0.00284346	-0.0700433	0
    Cd(r):	-0.072474	-0.00242709	-0.0700469	0
    Cl:	0.0763217	-0.000590206	0.0769119	0
    Cl(f):	0.0526151	0.00891977	0.0436953	0
    Cl(r):	0.0237066	-0.00950998	0.0332166	0
    CmPitch:	0.0144542	0.00921487	0.00523934	0
    CmRoll:	-0.000206398	-0.000208186	1.78763e-06	0
    CmYaw:	-0.000497286	-0.000486513	-1.07724e-05	0
    Cs:	0.000643484	-4.09455e-07	0.000643893	0
    Cs(f):	-0.000175544	-0.000486718	0.000311174	0
    Cs(r):	0.000819028	0.000486309	0.000332719	0

Time = 28

smoothSolver:  Solving for Ux, Initial residual = 0.00967626, Final residual = 0.000113706, No Iterations 1
smoothSolver:  Solving for Uy, Initial residual = 0.00541421, Final residual = 6.20635e-05, No Iterations 1
smoothSolver:  Solving for Uz, Initial residual = 0.00920639, Final residual = 0.000102899, No Iterations 1
GAMG:  Solving for p, Initial residual = 0.0589436, Final residual = 0.00504456, No Iterations 2
time step continuity errors : sum local = 9.72561e-05, global = 1.24277e-06, cumulative = -8.78262e-05
smoothSolver:  Solving for omega, Initial residual = 0.0155936, Final residual = 0.000129108, No Iterations 1
bounding omega, min: -1.34493 max: 648.326 average: 31.0085
smoothSolver:  Solving for k, Initial residual = 0.0186945, Final residual = 0.000152959, No Iterations 1
smoothSolver:  Solving for ReThetat, Initial residual = 0.024385, Final residual = 6.10363e-09, No Iterations 1
smoothSolver:  Solving for gammaInt, Initial residual = 0.079445, Final residual = 0.0708484, No Iterations 100
ExecutionTime = 65.39 s  ClockTime = 66 s

forceCoeffs forceCoeffs write:
    Coefficient	Total	Pressure	Viscous	Internal
    Cd:	-0.125517	-0.00517919	-0.120338	0
    Cd(f):	-0.0634542	-0.00328691	-0.0601673	0
    Cd(r):	-0.0620629	-0.00189228	-0.0601707	0
    Cl:	0.0767835	-0.000596301	0.0773798	0
    Cl(f):	0.0342831	-0.00956336	0.0438464	0
    Cl(r):	0.0425005	0.00896706	0.0335334	0
    CmPitch:	-0.00410871	-0.00926521	0.0051565	0
    CmRoll:	-0.000695648	-0.000697314	1.66623e-06	0
    CmYaw:	-0.000453292	-0.000442635	-1.06573e-05	0
    Cs:	-1.99469e-05	-5.67711e-07	-1.93792e-05	0
    Cs(f):	-0.000463266	-0.000442919	-2.03469e-05	0
    Cs(r):	0.000443319	0.000442351	9.67671e-07	0

Time = 29

smoothSolver:  Solving for Ux, Initial residual = 0.00807291, Final residual = 9.3967e-05, No Iterations 1
smoothSolver:  Solving for Uy, Initial residual = 0.00449136, Final residual = 5.06223e-05, No Iterations 1
smoothSolver:  Solving for Uz, Initial residual = 0.00789421, Final residual = 8.60035e-05, No Iterations 1
GAMG:  Solving for p, Initial residual = 0.0496324, Final residual = 0.00435983, No Iterations 2
time step continuity errors : sum local = 9.22096e-05, global = -3.1136e-06, cumulative = -9.09398e-05
smoothSolver:  Solving for omega, Initial residual = 0.0149522, Final residual = 0.000124785, No Iterations 1
smoothSolver:  Solving for k, Initial residual = 0.017888, Final residual = 0.000147502, No Iterations 1
smoothSolver:  Solving for ReThetat, Initial residual = 0.023191, Final residual = 5.83199e-09, No Iterations 1
smoothSolver:  Solving for gammaInt, Initial residual = 0.0775452, Final residual = 0.0691932, No Iterations 100
ExecutionTime = 67.64 s  ClockTime = 68 s

forceCoeffs forceCoeffs write:
    Coefficient	Total	Pressure	Viscous	Internal
    Cd:	-0.116588	-0.00508908	-0.111499	0
    Cd(f):	-0.0592655	-0.00351726	-0.0557482	0
    Cd(r):	-0.057323	-0.00157182	-0.0557512	0
    Cl:	0.0692195	-0.000600515	0.06982	0
    Cl(f):	0.0235672	-0.0164166	0.0399838	0
    Cl(r):	0.0456523	0.0158161	0.0298362	0
    CmPitch:	-0.0110426	-0.0161164	0.00507382	0
    CmRoll:	-0.000971268	-0.000972721	1.45371e-06	0
    CmYaw:	-0.000432105	-0.000421564	-1.05412e-05	0
    Cs:	-0.000486865	-7.99067e-07	-0.000486066	0
    Cs(f):	-0.000675538	-0.000421964	-0.000253574	0
    Cs(r):	0.000188673	0.000421164	-0.000232492	0

Time = 30

smoothSolver:  Solving for Ux, Initial residual = 0.00703927, Final residual = 8.1479e-05, No Iterations 1
smoothSolver:  Solving for Uy, Initial residual = 0.00418478, Final residual = 4.75085e-05, No Iterations 1
smoothSolver:  Solving for Uz, Initial residual = 0.00723191, Final residual = 7.78349e-05, No Iterations 1
GAMG:  Solving for p, Initial residual = 0.0466369, Final residual = 0.00399864, No Iterations 2
time step continuity errors : sum local = 8.21093e-05, global = -8.43308e-06, cumulative = -9.93729e-05
smoothSolver:  Solving for omega, Initial residual = 0.0143551, Final residual = 0.000120729, No Iterations 1
bounding omega, min: -1.23151 max: 645.428 average: 30.8318
smoothSolver:  Solving for k, Initial residual = 0.0171398, Final residual = 0.000142416, No Iterations 1
smoothSolver:  Solving for ReThetat, Initial residual = 0.0221058, Final residual = 5.58853e-09, No Iterations 1
smoothSolver:  Solving for gammaInt, Initial residual = 0.0762591, Final residual = 0.0676889, No Iterations 100
ExecutionTime = 70.09 s  ClockTime = 71 s

forceCoeffs forceCoeffs write:
    Coefficient	Total	Pressure	Viscous	Internal
    Cd:	-0.117612	-0.00500343	-0.112609	0
    Cd(f):	-0.0597805	-0.00347719	-0.0563033	0
    Cd(r):	-0.057832	-0.00152623	-0.0563057	0
    Cl:	0.0593895	-0.000603869	0.0599934	0
    Cl(f):	0.0218001	-0.0131908	0.034991	0
    Cl(r):	0.0375894	0.012587	0.0250024	0
    CmPitch:	-0.00789464	-0.0128889	0.00499426	0
    CmRoll:	-0.000974256	-0.000975479	1.22363e-06	0
    CmYaw:	-0.000431764	-0.000421345	-1.04197e-05	0
    Cs:	-0.000647303	-1.04341e-06	-0.000646259	0
    Cs(f):	-0.000755416	-0.000421866	-0.000333549	0
    Cs(r):	0.000108113	0.000420823	-0.00031271	0

Time = 31

smoothSolver:  Solving for Ux, Initial residual = 0.00640283, Final residual = 7.34772e-05, No Iterations 1
smoothSolver:  Solving for Uy, Initial residual = 0.00399283, Final residual = 4.54803e-05, No Iterations 1
smoothSolver:  Solving for Uz, Initial residual = 0.00689534, Final residual = 7.36003e-05, No Iterations 1
GAMG:  Solving for p, Initial residual = 0.0477192, Final residual = 0.00400158, No Iterations 2
time step continuity errors : sum local = 7.33307e-05, global = -1.36009e-05, cumulative = -0.000112974
smoothSolver:  Solving for omega, Initial residual = 0.0137975, Final residual = 0.000116963, No Iterations 1
bounding omega, min: -0.49978 max: 644.134 average: 30.7448
smoothSolver:  Solving for k, Initial residual = 0.0164487, Final residual = 0.000137686, No Iterations 1
smoothSolver:  Solving for ReThetat, Initial residual = 0.0211146, Final residual = 5.36787e-09, No Iterations 1
smoothSolver:  Solving for gammaInt, Initial residual = 0.0753564, Final residual = 0.0667616, No Iterations 100
ExecutionTime = 72.3 s  ClockTime = 73 s

forceCoeffs forceCoeffs write:
    Coefficient	Total	Pressure	Viscous	Internal
    Cd:	-0.12539	-0.00492416	-0.120466	0
    Cd(f):	-0.0634555	-0.00322359	-0.0602319	0
    Cd(r):	-0.0619346	-0.00170057	-0.060234	0
    Cl:	0.0516871	-0.000607216	0.0522943	0
    Cl(f):	0.027514	-0.00355294	0.031067	0
    Cl(r):	0.0241731	0.00294573	0.0212273	0
    CmPitch:	0.00167048	-0.00324934	0.00491982	0
    CmRoll:	-0.000760468	-0.00076151	1.04241e-06	0
    CmYaw:	-0.000445712	-0.000435412	-1.03003e-05	0
    Cs:	-0.000522868	-1.24568e-06	-0.000521622	0
    Cs(f):	-0.000707146	-0.000436035	-0.000271111	0
    Cs(r):	0.000184278	0.000434789	-0.000250511	0

Time = 32

smoothSolver:  Solving for Ux, Initial residual = 0.00601365, Final residual = 6.87639e-05, No Iterations 1
smoothSolver:  Solving for Uy, Initial residual = 0.00385285, Final residual = 4.40901e-05, No Iterations 1
smoothSolver:  Solving for Uz, Initial residual = 0.00657396, Final residual = 6.97797e-05, No Iterations 1
GAMG:  Solving for p, Initial residual = 0.0521663, Final residual = 0.00437612, No Iterations 2
time step continuity errors : sum local = 6.71975e-05, global = -1.09325e-05, cumulative = -0.000123906
smoothSolver:  Solving for omega, Initial residual = 0.0132772, Final residual = 0.000113436, No Iterations 1
smoothSolver:  Solving for k, Initial residual = 0.0158044, Final residual = 0.00013324, No Iterations 1
smoothSolver:  Solving for ReThetat, Initial residual = 0.0202045, Final residual = 5.16658e-09, No Iterations 1
smoothSolver:  Solving for gammaInt, Initial residual = 0.0735196, Final residual = 0.0660092, No Iterations 100
ExecutionTime = 74.42 s  ClockTime = 75 s

forceCoeffs forceCoeffs write:
    Coefficient	Total	Pressure	Viscous	Internal
    Cd:	-0.136503	-0.00485185	-0.131651	0
    Cd(f):	-0.0687049	-0.00288046	-0.0658244	0
    Cd(r):	-0.0677977	-0.00197139	-0.0658263	0
    Cl:	0.0487604	-0.000611202	0.0493716	0
    Cl(f):	0.0382609	0.00872389	0.029537	0
    Cl(r):	0.0104995	-0.00933509	0.0198346	0
    CmPitch:	0.0138807	0.00902949	0.00485121	0
    CmRoll:	-0.000453593	-0.000454538	9.45302e-07	0
    CmYaw:	-0.000467144	-0.000456975	-1.01684e-05	0
    Cs:	-0.000223284	-1.37136e-06	-0.000221913	0
    Cs(f):	-0.000578786	-0.000457661	-0.000121125	0
    Cs(r):	0.000355502	0.00045629	-0.000100788	0

Time = 33

smoothSolver:  Solving for Ux, Initial residual = 0.00594275, Final residual = 6.76432e-05, No Iterations 1
smoothSolver:  Solving for Uy, Initial residual = 0.0038333, Final residual = 4.42836e-05, No Iterations 1
smoothSolver:  Solving for Uz, Initial residual = 0.00636443, Final residual = 6.77541e-05, No Iterations 1
GAMG:  Solving for p, Initial residual = 0.0603891, Final residual = 0.00499118, No Iterations 2
time step continuity errors : sum local = 6.12396e-05, global = -5.962e-06, cumulative = -0.000129868
smoothSolver:  Solving for omega, Initial residual = 0.0127882, Final residual = 0.000110073, No Iterations 1
bounding omega, min: -0.675108 max: 670.392 average: 30.5723
smoothSolver:  Solving for k, Initial residual = 0.0152014, Final residual = 0.000129101, No Iterations 1
smoothSolver:  Solving for ReThetat, Initial residual = 0.0193655, Final residual = 4.98293e-09, No Iterations 1
smoothSolver:  Solving for gammaInt, Initial residual = 0.0729303, Final residual = 0.0641144, No Iterations 100
ExecutionTime = 76.54 s  ClockTime = 77 s

forceCoeffs forceCoeffs write:
    Coefficient	Total	Pressure	Viscous	Internal
    Cd:	-0.147305	-0.00478591	-0.142519	0
    Cd(f):	-0.0738291	-0.00257071	-0.0712584	0
    Cd(r):	-0.0734755	-0.0022152	-0.0712603	0
    Cl:	0.051734	-0.000616099	0.0523501	0
    Cl(f):	0.0509018	0.0199387	0.0309631	0
    Cl(r):	0.000832181	-0.0205548	0.021387	0
    CmPitch:	0.0250348	0.0202468	0.00478803	0
    CmRoll:	-0.000176822	-0.000177759	9.36914e-07	0
    CmYaw:	-0.00048853	-0.000478505	-1.00252e-05	0
    Cs:	0.000121816	-1.42001e-06	0.000123236	0
    Cs(f):	-0.000427622	-0.000479215	5.15928e-05	0
    Cs(r):	0.000549438	0.000477795	7.16433e-05	0

Time = 34

smoothSolver:  Solving for Ux, Initial residual = 0.00601945, Final residual = 6.8836e-05, No Iterations 1
smoothSolver:  Solving for Uy, Initial residual = 0.00382733, Final residual = 4.44898e-05, No Iterations 1
smoothSolver:  Solving for Uz, Initial residual = 0.006284, Final residual = 6.80931e-05, No Iterations 1
GAMG:  Solving for p, Initial residual = 0.0693856, Final residual = 0.00566275, No Iterations 2
time step continuity errors : sum local = 5.65622e-05, global = -2.0582e-06, cumulative = -0.000131927
smoothSolver:  Solving for omega, Initial residual = 0.0123295, Final residual = 0.00010684, No Iterations 1
smoothSolver:  Solving for k, Initial residual = 0.01464, Final residual = 0.000125254, No Iterations 1
smoothSolver:  Solving for ReThetat, Initial residual = 0.0185885, Final residual = 4.81539e-09, No Iterations 1
smoothSolver:  Solving for gammaInt, Initial residual = 0.0711514, Final residual = 0.0630205, No Iterations 100
ExecutionTime = 78.69 s  ClockTime = 79 s

forceCoeffs forceCoeffs write:
    Coefficient	Total	Pressure	Viscous	Internal
    Cd:	-0.155139	-0.00472484	-0.150414	0
    Cd(f):	-0.0775836	-0.00237743	-0.0752062	0
    Cd(r):	-0.0775556	-0.00234741	-0.0752082	0
    Cl:	0.0594721	-0.000621872	0.060094	0
    Cl(f):	0.0624411	0.0276652	0.034776	0
    Cl(r):	-0.00296903	-0.028287	0.025318	0
    CmPitch:	0.0327051	0.0279761	0.00472899	0
    CmRoll:	-1.4018e-05	-1.5014e-05	9.95987e-07	0
    CmYaw:	-0.000504238	-0.000494349	-9.88904e-06	0
    Cs:	0.000403037	-1.41575e-06	0.000404453	0
    Cs(f):	-0.00030272	-0.000495057	0.000192337	0
    Cs(r):	0.000705756	0.000493641	0.000212115	0

Time = 35

smoothSolver:  Solving for Ux, Initial residual = 0.0061028, Final residual = 7.05605e-05, No Iterations 1
smoothSolver:  Solving for Uy, Initial residual = 0.00380507, Final residual = 4.44574e-05, No Iterations 1
smoothSolver:  Solving for Uz, Initial residual = 0.00618944, Final residual = 6.85083e-05, No Iterations 1
GAMG:  Solving for p, Initial residual = 0.0713357, Final residual = 0.00597972, No Iterations 2
time step continuity errors : sum local = 5.44491e-05, global = 1.4974e-06, cumulative = -0.000130429
smoothSolver:  Solving for omega, Initial residual = 0.0118956, Final residual = 0.000103737, No Iterations 1
smoothSolver:  Solving for k, Initial residual = 0.0141117, Final residual = 0.000121589, No Iterations 1
smoothSolver:  Solving for ReThetat, Initial residual = 0.0178665, Final residual = 4.66228e-09, No Iterations 1
smoothSolver:  Solving for gammaInt, Initial residual = 0.070325, Final residual = 0.0623068, No Iterations 100
ExecutionTime = 80.82 s  ClockTime = 81 s

forceCoeffs forceCoeffs write:
    Coefficient	Total	Pressure	Viscous	Internal
    Cd:	-0.159065	-0.00466711	-0.154398	0
    Cd(f):	-0.07953	-0.00233195	-0.0771981	0
    Cd(r):	-0.0795354	-0.00233516	-0.0772002	0
    Cl:	0.0693303	-0.000628057	0.0699583	0
    Cl(f):	0.0709477	0.0312957	0.039652	0
    Cl(r):	-0.00161744	-0.0319237	0.0303063	0
    CmPitch:	0.0362826	0.0316097	0.00467287	0
    CmRoll:	2.69448e-06	1.60795e-06	1.08653e-06	0
    CmYaw:	-0.000512144	-0.000502382	-9.76107e-06	0
    Cs:	0.000552909	-1.38975e-06	0.000554298	0
    Cs(f):	-0.000235689	-0.000503077	0.000267388	0
    Cs(r):	0.000788598	0.000501688	0.00028691	0

Time = 36

smoothSolver:  Solving for Ux, Initial residual = 0.00609937, Final residual = 7.11892e-05, No Iterations 1
smoothSolver:  Solving for Uy, Initial residual = 0.00377028, Final residual = 4.41599e-05, No Iterations 1
smoothSolver:  Solving for Uz, Initial residual = 0.00608129, Final residual = 6.82977e-05, No Iterations 1
GAMG:  Solving for p, Initial residual = 0.064592, Final residual = 0.0052502, No Iterations 2
time step continuity errors : sum local = 4.9438e-05, global = 6.63912e-06, cumulative = -0.00012379
smoothSolver:  Solving for omega, Initial residual = 0.0114855, Final residual = 0.000100772, No Iterations 1
smoothSolver:  Solving for k, Initial residual = 0.0136167, Final residual = 0.000118089, No Iterations 1
smoothSolver:  Solving for ReThetat, Initial residual = 0.0171936, Final residual = 4.52201e-09, No Iterations 1
smoothSolver:  Solving for gammaInt, Initial residual = 0.0697534, Final residual = 0.0614825, No Iterations 100
ExecutionTime = 83.04 s  ClockTime = 84 s

forceCoeffs forceCoeffs write:
    Coefficient	Total	Pressure	Viscous	Internal
    Cd:	-0.159692	-0.00461142	-0.155081	0
    Cd(f):	-0.079952	-0.00241288	-0.0775392	0
    Cd(r):	-0.07974	-0.00219855	-0.0775415	0
    Cl:	0.0787451	-0.000634171	0.0793792	0
    Cl(f):	0.0760232	0.031715	0.0443082	0
    Cl(r):	0.00272189	-0.0323491	0.035071	0
    CmPitch:	0.0366506	0.0320321	0.00461859	0
    CmRoll:	-0.000105993	-0.000107164	1.17087e-06	0
    CmYaw:	-0.000513357	-0.000503715	-9.64176e-06	0
    Cs:	0.000560432	-1.37217e-06	0.000561804	0
    Cs(f):	-0.000233141	-0.000504401	0.00027126	0
    Cs(r):	0.000793573	0.000503029	0.000290544	0

Time = 37

smoothSolver:  Solving for Ux, Initial residual = 0.00606205, Final residual = 7.13375e-05, No Iterations 1
smoothSolver:  Solving for Uy, Initial residual = 0.00368711, Final residual = 4.31772e-05, No Iterations 1
smoothSolver:  Solving for Uz, Initial residual = 0.00598296, Final residual = 6.76175e-05, No Iterations 1
GAMG:  Solving for p, Initial residual = 0.053828, Final residual = 0.004306, No Iterations 2
time step continuity errors : sum local = 4.55153e-05, global = 9.9249e-06, cumulative = -0.000113865
smoothSolver:  Solving for omega, Initial residual = 0.0111014, Final residual = 9.79356e-05, No Iterations 1
smoothSolver:  Solving for k, Initial residual = 0.0131536, Final residual = 0.000114735, No Iterations 1
smoothSolver:  Solving for ReThetat, Initial residual = 0.0165648, Final residual = 4.39285e-09, No Iterations 1
smoothSolver:  Solving for gammaInt, Initial residual = 0.0684295, Final residual = 0.0606142, No Iterations 100
ExecutionTime = 85.22 s  ClockTime = 86 s

forceCoeffs forceCoeffs write:
    Coefficient	Total	Pressure	Viscous	Internal
    Cd:	-0.158242	-0.0045569	-0.153685	0
    Cd(f):	-0.0794136	-0.00257244	-0.0768412	0
    Cd(r):	-0.0788281	-0.00198446	-0.0768437	0
    Cl:	0.0865772	-0.000639927	0.0872171	0
    Cl(f):	0.078483	0.0303092	0.0481738	0
    Cl(r):	0.00809421	-0.0309491	0.0390433	0
    CmPitch:	0.0351944	0.0306292	0.00456522	0
    CmRoll:	-0.000292759	-0.00029399	1.23152e-06	0
    CmYaw:	-0.000510181	-0.000500638	-9.54309e-06	0
    Cs:	0.000446195	-1.37534e-06	0.00044757	0
    Cs(f):	-0.000287083	-0.000501325	0.000214242	0
    Cs(r):	0.000733278	0.00049995	0.000233328	0

Time = 38

smoothSolver:  Solving for Ux, Initial residual = 0.00589342, Final residual = 6.94435e-05, No Iterations 1
smoothSolver:  Solving for Uy, Initial residual = 0.00351839, Final residual = 4.10394e-05, No Iterations 1
smoothSolver:  Solving for Uz, Initial residual = 0.00581097, Final residual = 6.55195e-05, No Iterations 1
GAMG:  Solving for p, Initial residual = 0.0433735, Final residual = 0.00339467, No Iterations 2
time step continuity errors : sum local = 4.1513e-05, global = 9.01945e-06, cumulative = -0.000104846
smoothSolver:  Solving for omega, Initial residual = 0.0107371, Final residual = 9.52346e-05, No Iterations 1
smoothSolver:  Solving for k, Initial residual = 0.0127159, Final residual = 0.000111535, No Iterations 1
smoothSolver:  Solving for ReThetat, Initial residual = 0.0159758, Final residual = 4.2733e-09, No Iterations 1
smoothSolver:  Solving for gammaInt, Initial residual = 0.0673255, Final residual = 0.060037, No Iterations 100
ExecutionTime = 87.48 s  ClockTime = 88 s

forceCoeffs forceCoeffs write:
    Coefficient	Total	Pressure	Viscous	Internal
    Cd:	-0.155981	-0.00450317	-0.151478	0
    Cd(f):	-0.0784818	-0.00274399	-0.0757378	0
    Cd(r):	-0.0774995	-0.00175919	-0.0757403	0
    Cl:	0.0922804	-0.000645461	0.0929259	0
    Cl(f):	0.0793559	0.028381	0.0509749	0
    Cl(r):	0.0129245	-0.0290265	0.041951	0
    CmPitch:	0.0332157	0.0287037	0.00451197	0
    CmRoll:	-0.000491169	-0.000492401	1.23259e-06	0
    CmYaw:	-0.00050496	-0.000495507	-9.45302e-06	0
    Cs:	0.000273092	-1.42564e-06	0.000274518	0
    Cs(f):	-0.000368414	-0.000496219	0.000127806	0
    Cs(r):	0.000641506	0.000494794	0.000146712	0

Time = 39

smoothSolver:  Solving for Ux, Initial residual = 0.00550085, Final residual = 6.45845e-05, No Iterations 1
smoothSolver:  Solving for Uy, Initial residual = 0.00328527, Final residual = 3.81335e-05, No Iterations 1
smoothSolver:  Solving for Uz, Initial residual = 0.00550332, Final residual = 6.14567e-05, No Iterations 1
GAMG:  Solving for p, Initial residual = 0.0355568, Final residual = 0.00264447, No Iterations 2
time step continuity errors : sum local = 3.69751e-05, global = 6.86939e-06, cumulative = -9.79763e-05
smoothSolver:  Solving for omega, Initial residual = 0.0103939, Final residual = 9.26759e-05, No Iterations 1
smoothSolver:  Solving for k, Initial residual = 0.0123049, Final residual = 0.000108478, No Iterations 1
smoothSolver:  Solving for ReThetat, Initial residual = 0.0154229, Final residual = 4.16182e-09, No Iterations 1
smoothSolver:  Solving for gammaInt, Initial residual = 0.0672163, Final residual = 0.0587139, No Iterations 100
ExecutionTime = 89.61 s  ClockTime = 90 s

forceCoeffs forceCoeffs write:
    Coefficient	Total	Pressure	Viscous	Internal
    Cd:	-0.154142	-0.00445045	-0.149691	0
    Cd(f):	-0.0777163	-0.00287179	-0.0748445	0
    Cd(r):	-0.0764255	-0.00157866	-0.0748469	0
    Cl:	0.0957878	-0.00065062	0.0964384	0
    Cl(f):	0.0797512	0.027073	0.0526782	0
    Cl(r):	0.0160366	-0.0277236	0.0437602	0
    CmPitch:	0.0318573	0.0273983	0.00445901	0
    CmRoll:	-0.000645387	-0.000646561	1.17365e-06	0
    CmYaw:	-0.000500317	-0.000490942	-9.37478e-06	0
    Cs:	0.000102929	-1.52156e-06	0.00010445	0
    Cs(f):	-0.000448852	-0.000491703	4.28503e-05	0
    Cs(r):	0.000551781	0.000490181	6.15999e-05	0

Time = 40

smoothSolver:  Solving for Ux, Initial residual = 0.00498536, Final residual = 5.82422e-05, No Iterations 1
smoothSolver:  Solving for Uy, Initial residual = 0.00306799, Final residual = 3.54416e-05, No Iterations 1
smoothSolver:  Solving for Uz, Initial residual = 0.0051233, Final residual = 5.68192e-05, No Iterations 1
GAMG:  Solving for p, Initial residual = 0.0307266, Final residual = 0.00224476, No Iterations 2
time step continuity errors : sum local = 3.44607e-05, global = 4.69078e-06, cumulative = -9.32855e-05
smoothSolver:  Solving for omega, Initial residual = 0.0100692, Final residual = 9.02387e-05, No Iterations 1
smoothSolver:  Solving for k, Initial residual = 0.0119148, Final residual = 0.000105563, No Iterations 1
smoothSolver:  Solving for ReThetat, Initial residual = 0.0149005, Final residual = 4.05688e-09, No Iterations 1
smoothSolver:  Solving for gammaInt, Initial residual = 0.0659136, Final residual = 0.0578105, No Iterations 100
ExecutionTime = 91.84 s  ClockTime = 93 s

forceCoeffs forceCoeffs write:
    Coefficient	Total	Pressure	Viscous	Internal
    Cd:	-0.153502	-0.00439892	-0.149103	0
    Cd(f):	-0.0774645	-0.00291426	-0.0745503	0
    Cd(r):	-0.0760371	-0.00148466	-0.0745524	0
    Cl:	0.0978599	-0.000655447	0.0985153	0
    Cl(f):	0.0807032	0.0270391	0.0536642	0
    Cl(r):	0.0171567	-0.0276945	0.0448512	0
    CmPitch:	0.0317733	0.0273668	0.00440648	0
    CmRoll:	-0.000713704	-0.000714799	1.0943e-06	0
    CmYaw:	-0.000497884	-0.000488592	-9.29206e-06	0
    Cs:	4.80657e-06	-1.6267e-06	6.43327e-06	0
    Cs(f):	-0.000495481	-0.000489406	-6.07542e-06	0
    Cs(r):	0.000500288	0.000487779	1.25087e-05	0

Time = 41

smoothSolver:  Solving for Ux, Initial residual = 0.00454851, Final residual = 5.28971e-05, No Iterations 1
smoothSolver:  Solving for Uy, Initial residual = 0.00295902, Final residual = 3.41358e-05, No Iterations 1
smoothSolver:  Solving for Uz, Initial residual = 0.00481992, Final residual = 5.34082e-05, No Iterations 1
GAMG:  Solving for p, Initial residual = 0.0282876, Final residual = 0.00220103, No Iterations 2
time step continuity errors : sum local = 3.53008e-05, global = 1.11228e-06, cumulative = -9.21732e-05
smoothSolver:  Solving for omega, Initial residual = 0.00976054, Final residual = 8.79202e-05, No Iterations 1
smoothSolver:  Solving for k, Initial residual = 0.0115445, Final residual = 0.000102794, No Iterations 1
smoothSolver:  Solving for ReThetat, Initial residual = 0.0144068, Final residual = 3.95784e-09, No Iterations 1
smoothSolver:  Solving for gammaInt, Initial residual = 0.0649207, Final residual = 0.0571148, No Iterations 100
ExecutionTime = 94.07 s  ClockTime = 95 s

forceCoeffs forceCoeffs write:
    Coefficient	Total	Pressure	Viscous	Internal
    Cd:	-0.154265	-0.00434884	-0.149916	0
    Cd(f):	-0.0778483	-0.00289134	-0.074957	0
    Cd(r):	-0.0764165	-0.0014575	-0.074959	0
    Cl:	0.0995668	-0.000660131	0.100227	0
    Cl(f):	0.0828088	0.0283408	0.054468	0
    Cl(r):	0.0167579	-0.029001	0.0457589	0
    CmPitch:	0.0330255	0.0286709	0.00435455	0
    CmRoll:	-0.000715927	-0.000716919	9.91911e-07	0
    CmYaw:	-0.000498337	-0.000489115	-9.22156e-06	0
    Cs:	-3.67101e-05	-1.73992e-06	-3.49702e-05	0
    Cs(f):	-0.000516692	-0.000489985	-2.67066e-05	0
    Cs(r):	0.000479981	0.000488245	-8.26353e-06	0

Time = 42

smoothSolver:  Solving for Ux, Initial residual = 0.00426217, Final residual = 4.94596e-05, No Iterations 1
smoothSolver:  Solving for Uy, Initial residual = 0.00292335, Final residual = 3.37923e-05, No Iterations 1
smoothSolver:  Solving for Uz, Initial residual = 0.00464195, Final residual = 5.14637e-05, No Iterations 1
GAMG:  Solving for p, Initial residual = 0.0274954, Final residual = 0.00219261, No Iterations 2
time step continuity errors : sum local = 3.52758e-05, global = -4.32288e-06, cumulative = -9.64961e-05
smoothSolver:  Solving for omega, Initial residual = 0.00946974, Final residual = 8.57152e-05, No Iterations 1
smoothSolver:  Solving for k, Initial residual = 0.0111953, Final residual = 0.000100158, No Iterations 1
smoothSolver:  Solving for ReThetat, Initial residual = 0.0139406, Final residual = 3.86445e-09, No Iterations 1
smoothSolver:  Solving for gammaInt, Initial residual = 0.0641747, Final residual = 0.05672, No Iterations 100
ExecutionTime = 96.25 s  ClockTime = 97 s

forceCoeffs forceCoeffs write:
    Coefficient	Total	Pressure	Viscous	Internal
    Cd:	-0.156333	-0.00430054	-0.152032	0
    Cd(f):	-0.0788292	-0.00281405	-0.0760152	0
    Cd(r):	-0.0775035	-0.00148649	-0.076017	0
    Cl:	0.1016	-0.000664742	0.102265	0
    Cl(f):	0.0861751	0.030739	0.0554361	0
    Cl(r):	0.0154251	-0.0314037	0.0468289	0
    CmPitch:	0.035375	0.0310714	0.00430362	0
    CmRoll:	-0.000662857	-0.000663777	9.19666e-07	0
    CmYaw:	-0.000501556	-0.000492408	-9.14782e-06	0
    Cs:	-9.87469e-07	-1.81886e-06	8.31386e-07	0
    Cs(f):	-0.000502049	-0.000493317	-8.73213e-06	0
    Cs(r):	0.000501062	0.000491498	9.56352e-06	0

Time = 43

smoothSolver:  Solving for Ux, Initial residual = 0.00408946, Final residual = 4.76777e-05, No Iterations 1
smoothSolver:  Solving for Uy, Initial residual = 0.00290463, Final residual = 3.36077e-05, No Iterations 1
smoothSolver:  Solving for Uz, Initial residual = 0.00454099, Final residual = 5.06878e-05, No Iterations 1
GAMG:  Solving for p, Initial residual = 0.0274749, Final residual = 0.00222729, No Iterations 2
time step continuity errors : sum local = 3.50466e-05, global = -8.85003e-06, cumulative = -0.000105346
smoothSolver:  Solving for omega, Initial residual = 0.00919147, Final residual = 8.35933e-05, No Iterations 1
smoothSolver:  Solving for k, Initial residual = 0.0108638, Final residual = 9.76416e-05, No Iterations 1
smoothSolver:  Solving for ReThetat, Initial residual = 0.0134987, Final residual = 3.77618e-09, No Iterations 1
smoothSolver:  Solving for gammaInt, Initial residual = 0.0628844, Final residual = 0.0562783, No Iterations 100
ExecutionTime = 98.42 s  ClockTime = 99 s

forceCoeffs forceCoeffs write:
    Coefficient	Total	Pressure	Viscous	Internal
    Cd:	-0.159425	-0.00425404	-0.155171	0
    Cd(f):	-0.0803173	-0.00273281	-0.0775845	0
    Cd(r):	-0.0791074	-0.00152122	-0.0775862	0
    Cl:	0.104423	-0.000669324	0.105093	0
    Cl(f):	0.0907353	0.0339351	0.0568002	0
    Cl(r):	0.0136881	-0.0346045	0.0482926	0
    CmPitch:	0.0385236	0.0342698	0.0042538	0
    CmRoll:	-0.000604949	-0.000605796	8.46727e-07	0
    CmYaw:	-0.000507176	-0.000498102	-9.07407e-06	0
    Cs:	5.82856e-05	-1.89315e-06	6.01787e-05	0
    Cs(f):	-0.000478033	-0.000499049	2.10153e-05	0
    Cs(r):	0.000536319	0.000497156	3.91634e-05	0

Time = 44

smoothSolver:  Solving for Ux, Initial residual = 0.00399428, Final residual = 4.69272e-05, No Iterations 1
smoothSolver:  Solving for Uy, Initial residual = 0.00289082, Final residual = 3.34814e-05, No Iterations 1
smoothSolver:  Solving for Uz, Initial residual = 0.00447254, Final residual = 5.03177e-05, No Iterations 1
GAMG:  Solving for p, Initial residual = 0.0279837, Final residual = 0.00221209, No Iterations 2
time step continuity errors : sum local = 3.34383e-05, global = -1.07397e-05, cumulative = -0.000116086
smoothSolver:  Solving for omega, Initial residual = 0.00892736, Final residual = 8.15483e-05, No Iterations 1
smoothSolver:  Solving for k, Initial residual = 0.0105517, Final residual = 9.52634e-05, No Iterations 1
smoothSolver:  Solving for ReThetat, Initial residual = 0.0130796, Final residual = 3.69301e-09, No Iterations 1
smoothSolver:  Solving for gammaInt, Initial residual = 0.0624328, Final residual = 0.0556123, No Iterations 100
ExecutionTime = 100.93 s  ClockTime = 102 s

forceCoeffs forceCoeffs write:
    Coefficient	Total	Pressure	Viscous	Internal
    Cd:	-0.163187	-0.00420957	-0.158978	0
    Cd(f):	-0.0821491	-0.00266111	-0.079488	0
    Cd(r):	-0.0810381	-0.00154847	-0.0794896	0
    Cl:	0.108144	-0.000673834	0.108818	0
    Cl(f):	0.0961934	0.037579	0.0586144	0
    Cl(r):	0.0119505	-0.0382529	0.0502033	0
    CmPitch:	0.0421215	0.037916	0.00420553	0
    CmRoll:	-0.000555497	-0.000556318	8.21607e-07	0
    CmYaw:	-0.000514488	-0.000505483	-9.00547e-06	0
    Cs:	0.000139505	-1.93245e-06	0.000141438	0
    Cs(f):	-0.000444736	-0.000506449	6.17135e-05	0
    Cs(r):	0.000584241	0.000504517	7.97244e-05	0

Time = 45

smoothSolver:  Solving for Ux, Initial residual = 0.00397955, Final residual = 4.70146e-05, No Iterations 1
smoothSolver:  Solving for Uy, Initial residual = 0.00287778, Final residual = 3.33526e-05, No Iterations 1
smoothSolver:  Solving for Uz, Initial residual = 0.00443501, Final residual = 5.03089e-05, No Iterations 1
GAMG:  Solving for p, Initial residual = 0.0286008, Final residual = 0.00216814, No Iterations 2
time step continuity errors : sum local = 3.10803e-05, global = -1.03601e-05, cumulative = -0.000126446
smoothSolver:  Solving for omega, Initial residual = 0.00867667, Final residual = 7.95829e-05, No Iterations 1
smoothSolver:  Solving for k, Initial residual = 0.0102541, Final residual = 9.29802e-05, No Iterations 1
smoothSolver:  Solving for ReThetat, Initial residual = 0.0126821, Final residual = 3.61445e-09, No Iterations 1
smoothSolver:  Solving for gammaInt, Initial residual = 0.062556, Final residual = 0.0551822, No Iterations 100
ExecutionTime = 103.33 s  ClockTime = 104 s

forceCoeffs forceCoeffs write:
    Coefficient	Total	Pressure	Viscous	Internal
    Cd:	-0.167094	-0.0041672	-0.162927	0
    Cd(f):	-0.0840853	-0.00262251	-0.0814628	0
    Cd(r):	-0.0830091	-0.00154469	-0.0814645	0
    Cl:	0.112597	-0.000678243	0.113275	0
    Cl(f):	0.102016	0.0412195	0.0607967	0
    Cl(r):	0.010581	-0.0418978	0.0524788	0
    CmPitch:	0.0457176	0.0415586	0.00415899	0
    CmRoll:	-0.000538084	-0.000538913	8.29142e-07	0
    CmYaw:	-0.000522425	-0.000513471	-8.95388e-06	0
    Cs:	0.000206584	-1.95062e-06	0.000208535	0
    Cs(f):	-0.000419133	-0.000514446	9.53135e-05	0
    Cs(r):	0.000625717	0.000512495	0.000113221	0

Time = 46

smoothSolver:  Solving for Ux, Initial residual = 0.00404364, Final residual = 4.79379e-05, No Iterations 1
smoothSolver:  Solving for Uy, Initial residual = 0.00286302, Final residual = 3.32029e-05, No Iterations 1
smoothSolver:  Solving for Uz, Initial residual = 0.00443625, Final residual = 5.07211e-05, No Iterations 1
GAMG:  Solving for p, Initial residual = 0.0292703, Final residual = 0.0020668, No Iterations 2
time step continuity errors : sum local = 2.8019e-05, global = -8.55055e-06, cumulative = -0.000134997
smoothSolver:  Solving for omega, Initial residual = 0.00843625, Final residual = 7.77045e-05, No Iterations 1
smoothSolver:  Solving for k, Initial residual = 0.00996703, Final residual = 9.07685e-05, No Iterations 1
smoothSolver:  Solving for ReThetat, Initial residual = 0.0123041, Final residual = 3.53998e-09, No Iterations 1
smoothSolver:  Solving for gammaInt, Initial residual = 0.0615006, Final residual = 0.0544043, No Iterations 100
ExecutionTime = 105.54 s  ClockTime = 106 s

forceCoeffs forceCoeffs write:
    Coefficient	Total	Pressure	Viscous	Internal
    Cd:	-0.170661	-0.00412614	-0.166535	0
    Cd(f):	-0.0858832	-0.00261635	-0.0832669	0
    Cd(r):	-0.0847783	-0.00150979	-0.0832685	0
    Cl:	0.117417	-0.000682566	0.1181	0
    Cl(f):	0.107622	0.0444591	0.0631631	0
    Cl(r):	0.00979498	-0.0451416	0.0549366	0
    CmPitch:	0.0489136	0.0448004	0.00411324	0
    CmRoll:	-0.000552479	-0.000553279	7.9954e-07	0
    CmYaw:	-0.000529937	-0.000521041	-8.8967e-06	0
    Cs:	0.000252304	-2.00251e-06	0.000254307	0
    Cs(f):	-0.000403785	-0.000522042	0.000118257	0
    Cs(r):	0.00065609	0.00052004	0.00013605	0

Time = 47

[...]
    in file ../turbulenceModels/lnInclude/kOmegaSSTLM.C at line 326
    Number of lambda iterations exceeds maxLambdaIter(10)
smoothSolver:  Solving for ReThetat, Initial residual = 0.000768757, Final residual = 1.16257e-09, No Iterations 1
smoothSolver:  Solving for gammaInt, Initial residual = 0.0275313, Final residual = 0.000127661, No Iterations 1
ExecutionTime = 1183.91 s  ClockTime = 1200 s

forceCoeffs forceCoeffs write:
    Coefficient	Total	Pressure	Viscous	Internal
    Cd:	-0.255931	-0.00242948	-0.253501	0
    Cd(f):	-0.129915	-0.00316286	-0.126752	0
    Cd(r):	-0.126015	0.000733374	-0.126749	0
    Cl:	0.33271	-0.000443668	0.333153	0
    Cl(f):	0.281162	0.112396	0.168766	0
    Cl(r):	0.051548	-0.11284	0.164388	0
    CmPitch:	0.114807	0.112618	0.00218898	0
    CmRoll:	-0.00194985	-0.00194812	-1.73515e-06	0
    CmYaw:	-0.000704981	-0.000698463	-6.51873e-06	0
    Cs:	-0.000879944	-4.31878e-06	-0.000875625	0
    Cs(f):	-0.00114495	-0.000700622	-0.000444331	0
    Cs(r):	0.000265009	0.000696303	-0.000431294	0

Time = 793

smoothSolver:  Solving for Ux, Initial residual = 0.0064858, Final residual = 7.8522e-05, No Iterations 1
smoothSolver:  Solving for Uy, Initial residual = 0.00279105, Final residual = 3.37866e-05, No Iterations 1
smoothSolver:  Solving for Uz, Initial residual = 0.00821085, Final residual = 0.000100945, No Iterations 1
GAMG:  Solving for p, Initial residual = 0.0158656, Final residual = 0.00155636, No Iterations 1
time step continuity errors : sum local = 3.46027e-05, global = -2.94306e-07, cumulative = -2.33839e-05
smoothSolver:  Solving for omega, Initial residual = 0.000898843, Final residual = 1.00866e-05, No Iterations 1
bounding omega, min: -5.26982 max: 965.364 average: 19.7737
smoothSolver:  Solving for k, Initial residual = 0.00289797, Final residual = 3.28425e-05, No Iterations 1
bounding k, min: -0.0955285 max: 114.853 average: 1.64115
--> FOAM Warning : 
    From Foam::tmp<Foam::DimensionedField<double, Foam::volMesh> > Foam::RASModels::kOmegaSSTLM<BasicTurbulenceModel>::ReThetat0(const Internal&, const Internal&, const Internal&) const [with BasicTurbulenceModel = Foam::IncompressibleTurbulenceModel<Foam::transportModel>; Foam::GeometricField<double, Foam::fvPatchField, Foam::volMesh>::Internal = Foam::DimensionedField<double, Foam::volMesh>]
    in file ../turbulenceModels/lnInclude/kOmegaSSTLM.C at line 326
    Number of lambda iterations exceeds maxLambdaIter(10)
smoothSolver:  Solving for ReThetat, Initial residual = 0.000770345, Final residual = 1.16175e-09, No Iterations 1
smoothSolver:  Solving for gammaInt, Initial residual = 0.0232162, Final residual = 0.000107413, No Iterations 1
ExecutionTime = 1185.25 s  ClockTime = 1201 s

forceCoeffs forceCoeffs write:
    Coefficient	Total	Pressure	Viscous	Internal
    Cd:	-0.255597	-0.00242867	-0.253169	0
    Cd(f):	-0.129738	-0.00315146	-0.126586	0
    Cd(r):	-0.12586	0.000722781	-0.126583	0
    Cl:	0.331565	-0.000445356	0.33201	0
    Cl(f):	0.280248	0.112054	0.168194	0
    Cl(r):	0.0513171	-0.112499	0.163816	0
    CmPitch:	0.114465	0.112276	0.00218882	0
    CmRoll:	-0.00193884	-0.00193712	-1.72428e-06	0
    CmYaw:	-0.000703994	-0.000697491	-6.50278e-06	0
    Cs:	-0.000870334	-4.30621e-06	-0.000866027	0
    Cs(f):	-0.00113916	-0.000699644	-0.000439517	0
    Cs(r):	0.000268827	0.000695338	-0.000426511	0

Time = 794

smoothSolver:  Solving for Ux, Initial residual = 0.00647001, Final residual = 7.81631e-05, No Iterations 1
smoothSolver:  Solving for Uy, Initial residual = 0.00278739, Final residual = 3.37137e-05, No Iterations 1
smoothSolver:  Solving for Uz, Initial residual = 0.00819708, Final residual = 0.000100644, No Iterations 1
GAMG:  Solving for p, Initial residual = 0.0160889, Final residual = 0.000458844, No Iterations 2
time step continuity errors : sum local = 1.01947e-05, global = 8.53068e-08, cumulative = -2.32986e-05
smoothSolver:  Solving for omega, Initial residual = 0.000898856, Final residual = 1.00515e-05, No Iterations 1
bounding omega, min: -6.04083 max: 965.447 average: 19.7754
smoothSolver:  Solving for k, Initial residual = 0.00289361, Final residual = 3.27133e-05, No Iterations 1
bounding k, min: -0.286183 max: 114.13 average: 1.64169
--> FOAM Warning : 
    From Foam::tmp<Foam::DimensionedField<double, Foam::volMesh> > Foam::RASModels::kOmegaSSTLM<BasicTurbulenceModel>::ReThetat0(const Internal&, const Internal&, const Internal&) const [with BasicTurbulenceModel = Foam::IncompressibleTurbulenceModel<Foam::transportModel>; Foam::GeometricField<double, Foam::fvPatchField, Foam::volMesh>::Internal = Foam::DimensionedField<double, Foam::volMesh>]
    in file ../turbulenceModels/lnInclude/kOmegaSSTLM.C at line 326
    Number of lambda iterations exceeds maxLambdaIter(10)
smoothSolver:  Solving for ReThetat, Initial residual = 0.000771091, Final residual = 1.16455e-09, No Iterations 1
smoothSolver:  Solving for gammaInt, Initial residual = 0.0245534, Final residual = 0.000165857, No Iterations 1
ExecutionTime = 1187.11 s  ClockTime = 1203 s

forceCoeffs forceCoeffs write:
    Coefficient	Total	Pressure	Viscous	Internal
    Cd:	-0.255153	-0.00242782	-0.252725	0
    Cd(f):	-0.129519	-0.00315438	-0.126364	0
    Cd(r):	-0.125634	0.000726559	-0.126361	0
    Cl:	0.329791	-0.000447133	0.330238	0
    Cl(f):	0.278883	0.111575	0.167308	0
    Cl(r):	0.0509084	-0.112022	0.162931	0
    CmPitch:	0.113987	0.111799	0.00218854	0
    CmRoll:	-0.00194218	-0.00194047	-1.71403e-06	0
    CmYaw:	-0.000702895	-0.000696409	-6.48612e-06	0
    Cs:	-0.000881276	-4.29468e-06	-0.000876981	0
    Cs(f):	-0.00114353	-0.000698556	-0.000444977	0
    Cs(r):	0.000262257	0.000694262	-0.000432005	0

Time = 795

smoothSolver:  Solving for Ux, Initial residual = 0.00646984, Final residual = 7.80087e-05, No Iterations 1
smoothSolver:  Solving for Uy, Initial residual = 0.00278584, Final residual = 3.36552e-05, No Iterations 1
smoothSolver:  Solving for Uz, Initial residual = 0.00819409, Final residual = 0.000100516, No Iterations 1
GAMG:  Solving for p, Initial residual = 0.016096, Final residual = 0.00153663, No Iterations 1
time step continuity errors : sum local = 3.41208e-05, global = -3.03631e-07, cumulative = -2.36022e-05
smoothSolver:  Solving for omega, Initial residual = 0.000898104, Final residual = 1.00085e-05, No Iterations 1
bounding omega, min: -5.23933 max: 965.512 average: 19.7769
smoothSolver:  Solving for k, Initial residual = 0.00288965, Final residual = 3.26135e-05, No Iterations 1
bounding k, min: -0.150548 max: 113.325 average: 1.64227
--> FOAM Warning : 
    From Foam::tmp<Foam::DimensionedField<double, Foam::volMesh> > Foam::RASModels::kOmegaSSTLM<BasicTurbulenceModel>::ReThetat0(const Internal&, const Internal&, const Internal&) const [with BasicTurbulenceModel = Foam::IncompressibleTurbulenceModel<Foam::transportModel>; Foam::GeometricField<double, Foam::fvPatchField, Foam::volMesh>::Internal = Foam::DimensionedField<double, Foam::volMesh>]
    in file ../turbulenceModels/lnInclude/kOmegaSSTLM.C at line 326
    Number of lambda iterations exceeds maxLambdaIter(10)
smoothSolver:  Solving for ReThetat, Initial residual = 0.000772923, Final residual = 1.1871e-09, No Iterations 1
smoothSolver:  Solving for gammaInt, Initial residual = 0.0294851, Final residual = 9.95039e-05, No Iterations 1
ExecutionTime = 1189.04 s  ClockTime = 1205 s

forceCoeffs forceCoeffs write:
    Coefficient	Total	Pressure	Viscous	Internal
    Cd:	-0.25487	-0.00242694	-0.252443	0
    Cd(f):	-0.129365	-0.00314176	-0.126223	0
    Cd(r):	-0.125505	0.000714812	-0.12622	0
    Cl:	0.328788	-0.000448943	0.329237	0
    Cl(f):	0.278088	0.111281	0.166807	0
    Cl(r):	0.0507004	-0.11173	0.16243	0
    CmPitch:	0.113694	0.111506	0.00218816	0
    CmRoll:	-0.00192999	-0.00192828	-1.70255e-06	0
    CmYaw:	-0.000702034	-0.000695565	-6.46949e-06	0
    Cs:	-0.000870138	-4.28202e-06	-0.000865856	0
    Cs(f):	-0.0011371	-0.000697706	-0.000439398	0
    Cs(r):	0.000266965	0.000693424	-0.000426459	0

Time = 796

smoothSolver:  Solving for Ux, Initial residual = 0.0064587, Final residual = 7.7685e-05, No Iterations 1
smoothSolver:  Solving for Uy, Initial residual = 0.00278031, Final residual = 3.35641e-05, No Iterations 1
smoothSolver:  Solving for Uz, Initial residual = 0.00818533, Final residual = 0.000100303, No Iterations 1
GAMG:  Solving for p, Initial residual = 0.0163234, Final residual = 0.00161359, No Iterations 1
time step continuity errors : sum local = 3.58088e-05, global = -3.48459e-07, cumulative = -2.39507e-05
smoothSolver:  Solving for omega, Initial residual = 0.000897478, Final residual = 9.9657e-06, No Iterations 1
bounding omega, min: -5.96586 max: 965.574 average: 19.7788
smoothSolver:  Solving for k, Initial residual = 0.00288883, Final residual = 3.25475e-05, No Iterations 1
bounding k, min: -0.151545 max: 113.037 average: 1.64281
--> FOAM Warning : 
    From Foam::tmp<Foam::DimensionedField<double, Foam::volMesh> > Foam::RASModels::kOmegaSSTLM<BasicTurbulenceModel>::ReThetat0(const Internal&, const Internal&, const Internal&) const [with BasicTurbulenceModel = Foam::IncompressibleTurbulenceModel<Foam::transportModel>; Foam::GeometricField<double, Foam::fvPatchField, Foam::volMesh>::Internal = Foam::DimensionedField<double, Foam::volMesh>]
    in file ../turbulenceModels/lnInclude/kOmegaSSTLM.C at line 326
    Number of lambda iterations exceeds maxLambdaIter(10)
smoothSolver:  Solving for ReThetat, Initial residual = 0.000773129, Final residual = 1.20569e-09, No Iterations 1
smoothSolver:  Solving for gammaInt, Initial residual = 0.0246142, Final residual = 8.95978e-05, No Iterations 1
ExecutionTime = 1190.85 s  ClockTime = 1207 s

forceCoeffs forceCoeffs write:
    Coefficient	Total	Pressure	Viscous	Internal
    Cd:	-0.254603	-0.00242606	-0.252177	0
    Cd(f):	-0.129222	-0.00313188	-0.12609	0
    Cd(r):	-0.125381	0.000705812	-0.126087	0
    Cl:	0.327788	-0.000450777	0.328239	0
    Cl(f):	0.277304	0.110997	0.166307	0
    Cl(r):	0.0504834	-0.111448	0.161932	0
    CmPitch:	0.113411	0.111223	0.0021877	0
    CmRoll:	-0.00192053	-0.00191884	-1.69032e-06	0
    CmYaw:	-0.000701241	-0.000694789	-6.45204e-06	0
    Cs:	-0.000863711	-4.26821e-06	-0.000859442	0
    Cs(f):	-0.0011331	-0.000696923	-0.000436173	0
    Cs(r):	0.000269386	0.000692655	-0.000423269	0

Time = 797

smoothSolver:  Solving for Ux, Initial residual = 0.00644857, Final residual = 7.73951e-05, No Iterations 1
smoothSolver:  Solving for Uy, Initial residual = 0.00277521, Final residual = 3.34929e-05, No Iterations 1
smoothSolver:  Solving for Uz, Initial residual = 0.00817357, Final residual = 0.000100095, No Iterations 1
GAMG:  Solving for p, Initial residual = 0.0165957, Final residual = 0.000488621, No Iterations 2
time step continuity errors : sum local = 1.08376e-05, global = 1.82038e-08, cumulative = -2.39325e-05
smoothSolver:  Solving for omega, Initial residual = 0.000896053, Final residual = 9.91428e-06, No Iterations 1
bounding omega, min: -5.31341 max: 965.618 average: 19.7806
smoothSolver:  Solving for k, Initial residual = 0.00288658, Final residual = 3.24668e-05, No Iterations 1
bounding k, min: -0.19854 max: 112.665 average: 1.64341
--> FOAM Warning : 
    From Foam::tmp<Foam::DimensionedField<double, Foam::volMesh> > Foam::RASModels::kOmegaSSTLM<BasicTurbulenceModel>::ReThetat0(const Internal&, const Internal&, const Internal&) const [with BasicTurbulenceModel = Foam::IncompressibleTurbulenceModel<Foam::transportModel>; Foam::GeometricField<double, Foam::fvPatchField, Foam::volMesh>::Internal = Foam::DimensionedField<double, Foam::volMesh>]
    in file ../turbulenceModels/lnInclude/kOmegaSSTLM.C at line 326
    Number of lambda iterations exceeds maxLambdaIter(10)
smoothSolver:  Solving for ReThetat, Initial residual = 0.000776937, Final residual = 1.21982e-09, No Iterations 1
smoothSolver:  Solving for gammaInt, Initial residual = 0.0262322, Final residual = 0.000189649, No Iterations 1
ExecutionTime = 1192.62 s  ClockTime = 1209 s

forceCoeffs forceCoeffs write:
    Coefficient	Total	Pressure	Viscous	Internal
    Cd:	-0.254236	-0.00242515	-0.251811	0
    Cd(f):	-0.129048	-0.00314092	-0.125907	0
    Cd(r):	-0.125188	0.000715765	-0.125904	0
    Cl:	0.326161	-0.000452688	0.326614	0
    Cl(f):	0.276069	0.110575	0.165494	0
    Cl(r):	0.0500925	-0.111027	0.16112	0
    CmPitch:	0.112988	0.110801	0.00218712	0
    CmRoll:	-0.00193002	-0.00192834	-1.68101e-06	0
    CmYaw:	-0.000700334	-0.000693901	-6.43326e-06	0
    Cs:	-0.000881768	-4.25838e-06	-0.00087751	0
    Cs(f):	-0.00114122	-0.00069603	-0.000445188	0
    Cs(r):	0.00025945	0.000691772	-0.000432322	0

Time = 798

smoothSolver:  Solving for Ux, Initial residual = 0.00645187, Final residual = 7.73061e-05, No Iterations 1
smoothSolver:  Solving for Uy, Initial residual = 0.00277391, Final residual = 3.34369e-05, No Iterations 1
smoothSolver:  Solving for Uz, Initial residual = 0.00816625, Final residual = 0.000100011, No Iterations 1
GAMG:  Solving for p, Initial residual = 0.0165955, Final residual = 0.00162329, No Iterations 1
time step continuity errors : sum local = 3.59906e-05, global = -4.20269e-07, cumulative = -2.43527e-05
smoothSolver:  Solving for omega, Initial residual = 0.000894403, Final residual = 9.86126e-06, No Iterations 1
bounding omega, min: -4.81044 max: 965.659 average: 19.7824
smoothSolver:  Solving for k, Initial residual = 0.00288484, Final residual = 3.24401e-05, No Iterations 1
bounding k, min: -0.163265 max: 112.21 average: 1.64404
--> FOAM Warning : 
    From Foam::tmp<Foam::DimensionedField<double, Foam::volMesh> > Foam::RASModels::kOmegaSSTLM<BasicTurbulenceModel>::ReThetat0(const Internal&, const Internal&, const Internal&) const [with BasicTurbulenceModel = Foam::IncompressibleTurbulenceModel<Foam::transportModel>; Foam::GeometricField<double, Foam::fvPatchField, Foam::volMesh>::Internal = Foam::DimensionedField<double, Foam::volMesh>]
    in file ../turbulenceModels/lnInclude/kOmegaSSTLM.C at line 326
    Number of lambda iterations exceeds maxLambdaIter(10)
smoothSolver:  Solving for ReThetat, Initial residual = 0.00078319, Final residual = 1.20404e-09, No Iterations 1
smoothSolver:  Solving for gammaInt, Initial residual = 0.0245527, Final residual = 0.000177444, No Iterations 1
ExecutionTime = 1194.22 s  ClockTime = 1210 s

forceCoeffs forceCoeffs write:
    Coefficient	Total	Pressure	Viscous	Internal
    Cd:	-0.254017	-0.00242424	-0.251593	0
    Cd(f):	-0.12893	-0.00313155	-0.125798	0
    Cd(r):	-0.125087	0.000707314	-0.125795	0
    Cl:	0.325291	-0.000454627	0.325745	0
    Cl(f):	0.275393	0.110334	0.165059	0
    Cl(r):	0.0498976	-0.110789	0.160686	0
    CmPitch:	0.112748	0.110561	0.00218645	0
    CmRoll:	-0.0019211	-0.00191943	-1.67098e-06	0
    CmYaw:	-0.000699607	-0.000693192	-6.41445e-06	0
    Cs:	-0.000875994	-4.24847e-06	-0.000871746	0
    Cs(f):	-0.0011376	-0.000695317	-0.000442287	0
    Cs(r):	0.00026161	0.000691068	-0.000429458	0

Time = 799

smoothSolver:  Solving for Ux, Initial residual = 0.00644058, Final residual = 7.7022e-05, No Iterations 1
smoothSolver:  Solving for Uy, Initial residual = 0.00276973, Final residual = 3.33631e-05, No Iterations 1
smoothSolver:  Solving for Uz, Initial residual = 0.008146, Final residual = 9.97489e-05, No Iterations 1
GAMG:  Solving for p, Initial residual = 0.016817, Final residual = 0.000479217, No Iterations 2
time step continuity errors : sum local = 1.06213e-05, global = -4.64924e-08, cumulative = -2.43992e-05
smoothSolver:  Solving for omega, Initial residual = 0.000893727, Final residual = 9.82537e-06, No Iterations 1
bounding omega, min: -5.25572 max: 965.683 average: 19.784
smoothSolver:  Solving for k, Initial residual = 0.0028819, Final residual = 3.24223e-05, No Iterations 1
bounding k, min: -0.113892 max: 111.667 average: 1.6447
--> FOAM Warning : 
    From Foam::tmp<Foam::DimensionedField<double, Foam::volMesh> > Foam::RASModels::kOmegaSSTLM<BasicTurbulenceModel>::ReThetat0(const Internal&, const Internal&, const Internal&) const [with BasicTurbulenceModel = Foam::IncompressibleTurbulenceModel<Foam::transportModel>; Foam::GeometricField<double, Foam::fvPatchField, Foam::volMesh>::Internal = Foam::DimensionedField<double, Foam::volMesh>]
    in file ../turbulenceModels/lnInclude/kOmegaSSTLM.C at line 326
    Number of lambda iterations exceeds maxLambdaIter(10)
smoothSolver:  Solving for ReThetat, Initial residual = 0.000790098, Final residual = 1.19804e-09, No Iterations 1
smoothSolver:  Solving for gammaInt, Initial residual = 0.0257516, Final residual = 0.000118518, No Iterations 1
ExecutionTime = 1195.95 s  ClockTime = 1212 s

forceCoeffs forceCoeffs write:
    Coefficient	Total	Pressure	Viscous	Internal
    Cd:	-0.253724	-0.00242331	-0.251301	0
    Cd(f):	-0.128788	-0.0031361	-0.125652	0
    Cd(r):	-0.124936	0.000712795	-0.125649	0
    Cl:	0.323903	-0.000456627	0.32436	0
    Cl(f):	0.274342	0.109976	0.164366	0
    Cl(r):	0.0495612	-0.110433	0.159994	0
    CmPitch:	0.11239	0.110205	0.00218568	0
    CmRoll:	-0.00192611	-0.00192445	-1.66125e-06	0
    CmYaw:	-0.000698785	-0.000692391	-6.39461e-06	0
    Cs:	-0.000884505	-4.23967e-06	-0.000880266	0
    Cs(f):	-0.00114104	-0.000694511	-0.000446527	0
    Cs(r):	0.000256533	0.000690271	-0.000433738	0

Time = 800

smoothSolver:  Solving for Ux, Initial residual = 0.00644127, Final residual = 7.69575e-05, No Iterations 1
smoothSolver:  Solving for Uy, Initial residual = 0.0027674, Final residual = 3.33112e-05, No Iterations 1
smoothSolver:  Solving for Uz, Initial residual = 0.00814244, Final residual = 9.95665e-05, No Iterations 1
GAMG:  Solving for p, Initial residual = 0.0167856, Final residual = 0.00157741, No Iterations 1
time step continuity errors : sum local = 3.49572e-05, global = -4.78397e-07, cumulative = -2.48776e-05
smoothSolver:  Solving for omega, Initial residual = 0.000894098, Final residual = 9.79473e-06, No Iterations 1
bounding omega, min: -5.22958 max: 965.705 average: 19.7862
smoothSolver:  Solving for k, Initial residual = 0.00287782, Final residual = 3.23905e-05, No Iterations 1
bounding k, min: -0.274392 max: 111.039 average: 1.64537
--> FOAM Warning : 
    From Foam::tmp<Foam::DimensionedField<double, Foam::volMesh> > Foam::RASModels::kOmegaSSTLM<BasicTurbulenceModel>::ReThetat0(const Internal&, const Internal&, const Internal&) const [with BasicTurbulenceModel = Foam::IncompressibleTurbulenceModel<Foam::transportModel>; Foam::GeometricField<double, Foam::fvPatchField, Foam::volMesh>::Internal = Foam::DimensionedField<double, Foam::volMesh>]
    in file ../turbulenceModels/lnInclude/kOmegaSSTLM.C at line 326
    Number of lambda iterations exceeds maxLambdaIter(10)
smoothSolver:  Solving for ReThetat, Initial residual = 0.000798362, Final residual = 1.16354e-09, No Iterations 1
smoothSolver:  Solving for gammaInt, Initial residual = 0.0329482, Final residual = 0.000122472, No Iterations 1
ExecutionTime = 1199.67 s  ClockTime = 1216 s

forceCoeffs forceCoeffs write:
    Coefficient	Total	Pressure	Viscous	Internal
    Cd:	-0.253571	-0.00242239	-0.251149	0
    Cd(f):	-0.1287	-0.00312378	-0.125576	0
    Cd(r):	-0.124871	0.000701397	-0.125573	0
    Cl:	0.323215	-0.000458638	0.323674	0
    Cl(f):	0.273819	0.109797	0.164022	0
    Cl(r):	0.0493965	-0.110256	0.159652	0
    CmPitch:	0.112211	0.110026	0.00218485	0
    CmRoll:	-0.00191424	-0.00191259	-1.6499e-06	0
    CmYaw:	-0.000698168	-0.000691793	-6.37511e-06	0
    Cs:	-0.000873592	-4.22978e-06	-0.000869363	0
    Cs(f):	-0.00113496	-0.000693907	-0.000441056	0
    Cs(r):	0.000261371	0.000689678	-0.000428306	0

    writing force and moment coefficient files.

yPlus yPlus write:
    writing field yPlus
    patch sfera1 y+ : min = 204.217, max = 14627.9, average = 2660.39
    patch sfera2 y+ : min = 161.591, max = 14465.9, average = 2581.85
End

