/*---------------------------------------------------------------------------*\
| =========                 |                                                 |
| \\      /  F ield         | OpenFOAM: The Open Source CFD Toolbox           |
|  \\    /   O peration     | Version:  2206                                  |
|   \\  /    A nd           | Website:  www.openfoam.com                      |
|    \\/     M anipulation  |                                                 |
\*---------------------------------------------------------------------------*/
Build  : _76d719d1-20220624 OPENFOAM=2206 version=2206
Arch   : "LSB;label=32;scalar=64"
Exec   : simpleFoam
Date   : Aug 03 2022
Time   : 06:46:38
Host   : 86a4f8cdcbab
PID    : 281
I/O    : uncollated
Case   : /home/openfoam
nProcs : 1
trapFpe: Floating point exception trapping enabled (FOAM_SIGFPE).
fileModificationChecking : Monitoring run-time modified files using timeStampMaster (fileModificationSkew 5, maxFileModificationPolls 20)
allowSystemOperations : Allowing user-supplied system call operations

// * * * * * * * * * * * * * * * * * * * * * * * * * * * * * * * * * * * * * //
Create time

Create mesh for time = 0


SIMPLE: convergence criteria
    field p	 tolerance 1e-05
    field U	 tolerance 1e-05
    field "(k|omega|gammaInt|ReThetat)"	 tolerance 0.0001

Reading field p

Reading field U

Reading/calculating face flux field phi

Selecting incompressible transport model Newtonian
Selecting turbulence model type RAS
Selecting RAS turbulence model kOmegaSSTLM
Selecting patchDistMethod meshWave
RAS
{
    RASModel        kOmegaSSTLM;
    turbulence      on;
    printCoeffs     on;
    alphaK1         0.85;
    alphaK2         1;
    alphaOmega1     0.5;
    alphaOmega2     0.856;
    gamma1          0.555556;
    gamma2          0.44;
    beta1           0.075;
    beta2           0.0828;
    betaStar        0.09;
    a1              0.31;
    b1              1;
    c1              10;
    F3              false;
    decayControl    false;
    kInf            0;
    omegaInf        0;
    ca1             2;
    ca2             0.06;
    ce1             1;
    ce2             50;
    cThetat         0.03;
    sigmaThetat     2;
}

No MRF models present

No finite volume options present

Starting time loop

forceCoeffs forceCoeffs:
--> FOAM Warning : 
    From Foam::labelHashSet Foam::polyBoundaryMesh::patchSet(const Foam::UList<Foam::wordRe>&, bool, bool) const
    in file meshes/polyMesh/polyBoundaryMesh/polyBoundaryMesh.C at line 893
    Cannot find any patch or group names matching sfera
    rho: rhoInf
    Freestream density (rhoInf) set to 1.225
    Not including porosity effects
    magUInf: 42
    lRef   : 1
    Aref   : 3.14
    rhoInf : 1.225
    Selecting all coefficients
    - Drag force: Cd
    - Drag force front: Cd(f)
    - Drag force rear: Cd(r)
    - Lift force: Cl
    - Lift force front: Cl(f)
    - Lift force rear: Cl(r)
    - Pitch moment: CmPitch
    - Roll moment: CmRoll
    - Yaw moment: CmYaw
    - Side force: Cs
    - Side force front: Cs(f)
    - Side force rear: Cs(r)


Time = 0.1

smoothSolver:  Solving for Ux, Initial residual = 1, Final residual = 0.00180763, No Iterations 2
smoothSolver:  Solving for Uy, Initial residual = 1, Final residual = 0.0976855, No Iterations 1
smoothSolver:  Solving for Uz, Initial residual = 1, Final residual = 0.0975657, No Iterations 1
GAMG:  Solving for p, Initial residual = 1, Final residual = 0.0509788, No Iterations 4
time step continuity errors : sum local = 6.91977e-05, global = 5.7456e-06, cumulative = 5.7456e-06
smoothSolver:  Solving for omega, Initial residual = 0.702522, Final residual = 0.00577151, No Iterations 1
smoothSolver:  Solving for k, Initial residual = 1, Final residual = 0.00938415, No Iterations 1
smoothSolver:  Solving for ReThetat, Initial residual = 1, Final residual = 6.84195e-07, No Iterations 1
smoothSolver:  Solving for gammaInt, Initial residual = 1, Final residual = 1.33101, No Iterations 100
ExecutionTime = 5.36 s  ClockTime = 5 s

forceCoeffs forceCoeffs write:
    Coefficient	Total	Pressure	Viscous	Internal
    Cd:	0	0	0	0
    Cd(f):	0	0	0	0
    Cd(r):	0	0	0	0
    Cl:	0	0	0	0
    Cl(f):	0	0	0	0
    Cl(r):	0	0	0	0
    CmPitch:	0	0	0	0
    CmRoll:	0	0	0	0
    CmYaw:	0	0	0	0
    Cs:	0	0	0	0
    Cs(f):	0	0	0	0
    Cs(r):	0	0	0	0

    writing force and moment coefficient files.

yPlus yPlus write:
    writing field yPlus
    patch sfera1 y+ : min = 889.095, max = 35590.5, average = 8673.14
    patch sfera2 y+ : min = 398.997, max = 35630, average = 8667.44
Time = 0.2

smoothSolver:  Solving for Ux, Initial residual = 0.365737, Final residual = 0.00464545, No Iterations 1
smoothSolver:  Solving for Uy, Initial residual = 0.174374, Final residual = 0.00217608, No Iterations 1
smoothSolver:  Solving for Uz, Initial residual = 0.368285, Final residual = 0.00466546, No Iterations 1
GAMG:  Solving for p, Initial residual = 0.201111, Final residual = 0.0154738, No Iterations 3
time step continuity errors : sum local = 7.76199e-05, global = 4.45698e-06, cumulative = 1.02026e-05
smoothSolver:  Solving for omega, Initial residual = 0.361637, Final residual = 0.00299105, No Iterations 1
smoothSolver:  Solving for k, Initial residual = 0.876932, Final residual = 0.00721914, No Iterations 1
smoothSolver:  Solving for ReThetat, Initial residual = 0.957205, Final residual = 6.4195e-07, No Iterations 1
smoothSolver:  Solving for gammaInt, Initial residual = 0.337629, Final residual = 0.372416, No Iterations 100
ExecutionTime = 8.98 s  ClockTime = 9 s

forceCoeffs forceCoeffs write:
    Coefficient	Total	Pressure	Viscous	Internal
    Cd:	0	0	0	0
    Cd(f):	0	0	0	0
    Cd(r):	0	0	0	0
    Cl:	0	0	0	0
    Cl(f):	0	0	0	0
    Cl(r):	0	0	0	0
    CmPitch:	0	0	0	0
    CmRoll:	0	0	0	0
    CmYaw:	0	0	0	0
    Cs:	0	0	0	0
    Cs(f):	0	0	0	0
    Cs(r):	0	0	0	0

    writing force and moment coefficient files.

yPlus yPlus write:
    writing field yPlus
    patch sfera1 y+ : min = 876.415, max = 27158.1, average = 8718.42
    patch sfera2 y+ : min = 877.487, max = 27286.9, average = 8713.92
Time = 0.3

smoothSolver:  Solving for Ux, Initial residual = 0.244667, Final residual = 0.00308007, No Iterations 1
smoothSolver:  Solving for Uy, Initial residual = 0.139603, Final residual = 0.00173053, No Iterations 1
smoothSolver:  Solving for Uz, Initial residual = 0.246334, Final residual = 0.00309307, No Iterations 1
GAMG:  Solving for p, Initial residual = 0.126922, Final residual = 0.0083807, No Iterations 2
time step continuity errors : sum local = 5.79221e-05, global = 4.26164e-06, cumulative = 1.44642e-05
smoothSolver:  Solving for omega, Initial residual = 0.239505, Final residual = 0.00199677, No Iterations 1
smoothSolver:  Solving for k, Initial residual = 0.406034, Final residual = 0.00337049, No Iterations 1
smoothSolver:  Solving for ReThetat, Initial residual = 0.864131, Final residual = 5.67025e-07, No Iterations 1
smoothSolver:  Solving for gammaInt, Initial residual = 0.247855, Final residual = 0.250941, No Iterations 100
ExecutionTime = 12.58 s  ClockTime = 12 s

forceCoeffs forceCoeffs write:
    Coefficient	Total	Pressure	Viscous	Internal
    Cd:	0	0	0	0
    Cd(f):	0	0	0	0
    Cd(r):	0	0	0	0
    Cl:	0	0	0	0
    Cl(f):	0	0	0	0
    Cl(r):	0	0	0	0
    CmPitch:	0	0	0	0
    CmRoll:	0	0	0	0
    CmYaw:	0	0	0	0
    Cs:	0	0	0	0
    Cs(f):	0	0	0	0
    Cs(r):	0	0	0	0

    writing force and moment coefficient files.

yPlus yPlus write:
    writing field yPlus
    patch sfera1 y+ : min = 1919.67, max = 21097.6, average = 9118.23
    patch sfera2 y+ : min = 1917.87, max = 21135, average = 9108.76
Time = 0.4

smoothSolver:  Solving for Ux, Initial residual = 0.160121, Final residual = 0.00199925, No Iterations 1
smoothSolver:  Solving for Uy, Initial residual = 0.0934554, Final residual = 0.0011572, No Iterations 1
smoothSolver:  Solving for Uz, Initial residual = 0.159404, Final residual = 0.00199583, No Iterations 1
GAMG:  Solving for p, Initial residual = 0.1189, Final residual = 0.0101886, No Iterations 3
time step continuity errors : sum local = 7.52354e-05, global = -1.76952e-06, cumulative = 1.26947e-05
smoothSolver:  Solving for omega, Initial residual = 0.177129, Final residual = 0.00148717, No Iterations 1
smoothSolver:  Solving for k, Initial residual = 0.258976, Final residual = 0.00216307, No Iterations 1
--> FOAM Warning : 
    From Foam::tmp<Foam::DimensionedField<double, Foam::volMesh> > Foam::RASModels::kOmegaSSTLM<BasicTurbulenceModel>::ReThetat0(const Internal&, const Internal&, const Internal&) const [with BasicTurbulenceModel = Foam::IncompressibleTurbulenceModel<Foam::transportModel>; Foam::GeometricField<double, Foam::fvPatchField, Foam::volMesh>::Internal = Foam::DimensionedField<double, Foam::volMesh>]
    in file ../turbulenceModels/lnInclude/kOmegaSSTLM.C at line 326
    Number of lambda iterations exceeds maxLambdaIter(10)
smoothSolver:  Solving for ReThetat, Initial residual = 0.737674, Final residual = 4.72047e-07, No Iterations 1
smoothSolver:  Solving for gammaInt, Initial residual = 0.209421, Final residual = 0.203451, No Iterations 100
ExecutionTime = 16.08 s  ClockTime = 16 s

forceCoeffs forceCoeffs write:
    Coefficient	Total	Pressure	Viscous	Internal
    Cd:	0	0	0	0
    Cd(f):	0	0	0	0
    Cd(r):	0	0	0	0
    Cl:	0	0	0	0
    Cl(f):	0	0	0	0
    Cl(r):	0	0	0	0
    CmPitch:	0	0	0	0
    CmRoll:	0	0	0	0
    CmYaw:	0	0	0	0
    Cs:	0	0	0	0
    Cs(f):	0	0	0	0
    Cs(r):	0	0	0	0

    writing force and moment coefficient files.

yPlus yPlus write:
    writing field yPlus
    patch sfera1 y+ : min = 2418.67, max = 22196.3, average = 9412.57
    patch sfera2 y+ : min = 2373.49, max = 22153.2, average = 9403.33
Time = 0.5

smoothSolver:  Solving for Ux, Initial residual = 0.0875428, Final residual = 0.00108368, No Iterations 1
smoothSolver:  Solving for Uy, Initial residual = 0.0488757, Final residual = 0.00060513, No Iterations 1
smoothSolver:  Solving for Uz, Initial residual = 0.0854798, Final residual = 0.00106872, No Iterations 1
GAMG:  Solving for p, Initial residual = 0.134198, Final residual = 0.00617198, No Iterations 4
time step continuity errors : sum local = 4.15435e-05, global = -2.92122e-06, cumulative = 9.77347e-06
smoothSolver:  Solving for omega, Initial residual = 0.138565, Final residual = 0.00117076, No Iterations 1
smoothSolver:  Solving for k, Initial residual = 0.188203, Final residual = 0.00157943, No Iterations 1
smoothSolver:  Solving for ReThetat, Initial residual = 0.603535, Final residual = 3.75079e-07, No Iterations 1
smoothSolver:  Solving for gammaInt, Initial residual = 0.1806, Final residual = 0.17457, No Iterations 100
ExecutionTime = 19.63 s  ClockTime = 19 s

forceCoeffs forceCoeffs write:
    Coefficient	Total	Pressure	Viscous	Internal
    Cd:	0	0	0	0
    Cd(f):	0	0	0	0
    Cd(r):	0	0	0	0
    Cl:	0	0	0	0
    Cl(f):	0	0	0	0
    Cl(r):	0	0	0	0
    CmPitch:	0	0	0	0
    CmRoll:	0	0	0	0
    CmYaw:	0	0	0	0
    Cs:	0	0	0	0
    Cs(f):	0	0	0	0
    Cs(r):	0	0	0	0

    writing force and moment coefficient files.

yPlus yPlus write:
    writing field yPlus
    patch sfera1 y+ : min = 2457.14, max = 21511.3, average = 9410.76
    patch sfera2 y+ : min = 2373.74, max = 21394.4, average = 9400.42
Time = 0.6

smoothSolver:  Solving for Ux, Initial residual = 0.0225067, Final residual = 0.000261742, No Iterations 1
smoothSolver:  Solving for Uy, Initial residual = 0.0133307, Final residual = 0.000143717, No Iterations 1
smoothSolver:  Solving for Uz, Initial residual = 0.0210861, Final residual = 0.000253346, No Iterations 1
GAMG:  Solving for p, Initial residual = 0.209461, Final residual = 0.0184743, No Iterations 3
time step continuity errors : sum local = 7.95043e-05, global = -4.44709e-06, cumulative = 5.32638e-06
smoothSolver:  Solving for omega, Initial residual = 0.112883, Final residual = 0.000957695, No Iterations 1
smoothSolver:  Solving for k, Initial residual = 0.147028, Final residual = 0.0012389, No Iterations 1
smoothSolver:  Solving for ReThetat, Initial residual = 0.481132, Final residual = 2.8956e-07, No Iterations 1
smoothSolver:  Solving for gammaInt, Initial residual = 0.161895, Final residual = 0.153888, No Iterations 100
ExecutionTime = 23.11 s  ClockTime = 23 s

forceCoeffs forceCoeffs write:
    Coefficient	Total	Pressure	Viscous	Internal
    Cd:	0	0	0	0
    Cd(f):	0	0	0	0
    Cd(r):	0	0	0	0
    Cl:	0	0	0	0
    Cl(f):	0	0	0	0
    Cl(r):	0	0	0	0
    CmPitch:	0	0	0	0
    CmRoll:	0	0	0	0
    CmYaw:	0	0	0	0
    Cs:	0	0	0	0
    Cs(f):	0	0	0	0
    Cs(r):	0	0	0	0

    writing force and moment coefficient files.

yPlus yPlus write:
    writing field yPlus
    patch sfera1 y+ : min = 1706.56, max = 18829.3, average = 9159.56
    patch sfera2 y+ : min = 1705.66, max = 18835.6, average = 9149.93
Time = 0.7

smoothSolver:  Solving for Ux, Initial residual = 0.0431518, Final residual = 0.000532631, No Iterations 1
smoothSolver:  Solving for Uy, Initial residual = 0.0308721, Final residual = 0.000362841, No Iterations 1
smoothSolver:  Solving for Uz, Initial residual = 0.0445651, Final residual = 0.000548619, No Iterations 1
GAMG:  Solving for p, Initial residual = 0.390939, Final residual = 0.0204854, No Iterations 3
time step continuity errors : sum local = 4.72909e-05, global = -4.09109e-06, cumulative = 1.23528e-06
smoothSolver:  Solving for omega, Initial residual = 0.0948032, Final residual = 0.000807294, No Iterations 1
smoothSolver:  Solving for k, Initial residual = 0.120252, Final residual = 0.00101722, No Iterations 1
smoothSolver:  Solving for ReThetat, Initial residual = 0.379455, Final residual = 2.2018e-07, No Iterations 1
smoothSolver:  Solving for gammaInt, Initial residual = 0.148018, Final residual = 0.139763, No Iterations 100
ExecutionTime = 26.7 s  ClockTime = 27 s

forceCoeffs forceCoeffs write:
    Coefficient	Total	Pressure	Viscous	Internal
    Cd:	0	0	0	0
    Cd(f):	0	0	0	0
    Cd(r):	0	0	0	0
    Cl:	0	0	0	0
    Cl(f):	0	0	0	0
    Cl(r):	0	0	0	0
    CmPitch:	0	0	0	0
    CmRoll:	0	0	0	0
    CmYaw:	0	0	0	0
    Cs:	0	0	0	0
    Cs(f):	0	0	0	0
    Cs(r):	0	0	0	0

    writing force and moment coefficient files.

yPlus yPlus write:
    writing field yPlus
    patch sfera1 y+ : min = 982.03, max = 18351.9, average = 8725.81
    patch sfera2 y+ : min = 994.522, max = 18359.7, average = 8719.84
Time = 0.8

smoothSolver:  Solving for Ux, Initial residual = 0.0782282, Final residual = 0.000985917, No Iterations 1
smoothSolver:  Solving for Uy, Initial residual = 0.0470012, Final residual = 0.000576873, No Iterations 1
smoothSolver:  Solving for Uz, Initial residual = 0.0789416, Final residual = 0.000989063, No Iterations 1
GAMG:  Solving for p, Initial residual = 0.310159, Final residual = 0.017057, No Iterations 2
time step continuity errors : sum local = 4.58503e-05, global = -7.39595e-06, cumulative = -6.16067e-06
smoothSolver:  Solving for omega, Initial residual = 0.0816527, Final residual = 0.000697905, No Iterations 1
smoothSolver:  Solving for k, Initial residual = 0.101501, Final residual = 0.00086217, No Iterations 1
smoothSolver:  Solving for ReThetat, Initial residual = 0.299534, Final residual = 1.67413e-07, No Iterations 1
smoothSolver:  Solving for gammaInt, Initial residual = 0.133634, Final residual = 0.126016, No Iterations 100
ExecutionTime = 30.17 s  ClockTime = 30 s

forceCoeffs forceCoeffs write:
    Coefficient	Total	Pressure	Viscous	Internal
    Cd:	0	0	0	0
    Cd(f):	0	0	0	0
    Cd(r):	0	0	0	0
    Cl:	0	0	0	0
    Cl(f):	0	0	0	0
    Cl(r):	0	0	0	0
    CmPitch:	0	0	0	0
    CmRoll:	0	0	0	0
    CmYaw:	0	0	0	0
    Cs:	0	0	0	0
    Cs(f):	0	0	0	0
    Cs(r):	0	0	0	0

    writing force and moment coefficient files.

yPlus yPlus write:
    writing field yPlus
    patch sfera1 y+ : min = 1071.61, max = 17853.5, average = 8309.1
    patch sfera2 y+ : min = 1066.67, max = 17860.1, average = 8304.84
Time = 0.9

smoothSolver:  Solving for Ux, Initial residual = 0.0929686, Final residual = 0.00116509, No Iterations 1
smoothSolver:  Solving for Uy, Initial residual = 0.0482068, Final residual = 0.000603649, No Iterations 1
smoothSolver:  Solving for Uz, Initial residual = 0.0907769, Final residual = 0.00113392, No Iterations 1
GAMG:  Solving for p, Initial residual = 0.227564, Final residual = 0.0208967, No Iterations 2
time step continuity errors : sum local = 6.96505e-05, global = -4.58674e-06, cumulative = -1.07474e-05
smoothSolver:  Solving for omega, Initial residual = 0.0717493, Final residual = 0.000615982, No Iterations 1
smoothSolver:  Solving for k, Initial residual = 0.0876429, Final residual = 0.000747866, No Iterations 1
smoothSolver:  Solving for ReThetat, Initial residual = 0.238458, Final residual = 1.28238e-07, No Iterations 1
smoothSolver:  Solving for gammaInt, Initial residual = 0.122184, Final residual = 0.115685, No Iterations 100
ExecutionTime = 33.66 s  ClockTime = 34 s

forceCoeffs forceCoeffs write:
    Coefficient	Total	Pressure	Viscous	Internal
    Cd:	0	0	0	0
    Cd(f):	0	0	0	0
    Cd(r):	0	0	0	0
    Cl:	0	0	0	0
    Cl(f):	0	0	0	0
    Cl(r):	0	0	0	0
    CmPitch:	0	0	0	0
    CmRoll:	0	0	0	0
    CmYaw:	0	0	0	0
    Cs:	0	0	0	0
    Cs(f):	0	0	0	0
    Cs(r):	0	0	0	0

    writing force and moment coefficient files.

yPlus yPlus write:
    writing field yPlus
    patch sfera1 y+ : min = 1336.98, max = 17497.3, average = 7996.08
    patch sfera2 y+ : min = 1334.1, max = 17499, average = 7992.76
Time = 1

smoothSolver:  Solving for Ux, Initial residual = 0.0833195, Final residual = 0.00103474, No Iterations 1
smoothSolver:  Solving for Uy, Initial residual = 0.0351988, Final residual = 0.000447653, No Iterations 1
smoothSolver:  Solving for Uz, Initial residual = 0.0757182, Final residual = 0.000935263, No Iterations 1
GAMG:  Solving for p, Initial residual = 0.179018, Final residual = 0.0112878, No Iterations 3
time step continuity errors : sum local = 4.39422e-05, global = 5.68446e-07, cumulative = -1.0179e-05
smoothSolver:  Solving for omega, Initial residual = 0.0639508, Final residual = 0.000551815, No Iterations 1
smoothSolver:  Solving for k, Initial residual = 0.0770147, Final residual = 0.000660411, No Iterations 1
smoothSolver:  Solving for ReThetat, Initial residual = 0.192247, Final residual = 9.93709e-08, No Iterations 1
smoothSolver:  Solving for gammaInt, Initial residual = 0.112431, Final residual = 0.105785, No Iterations 100
ExecutionTime = 37.17 s  ClockTime = 37 s

forceCoeffs forceCoeffs write:
    Coefficient	Total	Pressure	Viscous	Internal
    Cd:	0	0	0	0
    Cd(f):	0	0	0	0
    Cd(r):	0	0	0	0
    Cl:	0	0	0	0
    Cl(f):	0	0	0	0
    Cl(r):	0	0	0	0
    CmPitch:	0	0	0	0
    CmRoll:	0	0	0	0
    CmYaw:	0	0	0	0
    Cs:	0	0	0	0
    Cs(f):	0	0	0	0
    Cs(r):	0	0	0	0

    writing force and moment coefficient files.

yPlus yPlus write:
    writing field yPlus
    patch sfera1 y+ : min = 1371.26, max = 17364.9, average = 7817.73
    patch sfera2 y+ : min = 1369.03, max = 17361.3, average = 7814.46
Time = 1.1

smoothSolver:  Solving for Ux, Initial residual = 0.0395447, Final residual = 0.000465939, No Iterations 1
smoothSolver:  Solving for Uy, Initial residual = 0.0149249, Final residual = 0.000185425, No Iterations 1
smoothSolver:  Solving for Uz, Initial residual = 0.0337461, Final residual = 0.000395219, No Iterations 1
GAMG:  Solving for p, Initial residual = 0.180332, Final residual = 0.0113469, No Iterations 3
time step continuity errors : sum local = 4.10736e-05, global = 1.88312e-06, cumulative = -8.29584e-06
smoothSolver:  Solving for omega, Initial residual = 0.0575894, Final residual = 0.000499996, No Iterations 1
smoothSolver:  Solving for k, Initial residual = 0.0686002, Final residual = 0.000591421, No Iterations 1
smoothSolver:  Solving for ReThetat, Initial residual = 0.157276, Final residual = 7.8033e-08, No Iterations 1
smoothSolver:  Solving for gammaInt, Initial residual = 0.10471, Final residual = 0.100102, No Iterations 100
ExecutionTime = 40.66 s  ClockTime = 41 s

forceCoeffs forceCoeffs write:
    Coefficient	Total	Pressure	Viscous	Internal
    Cd:	0	0	0	0
    Cd(f):	0	0	0	0
    Cd(r):	0	0	0	0
    Cl:	0	0	0	0
    Cl(f):	0	0	0	0
    Cl(r):	0	0	0	0
    CmPitch:	0	0	0	0
    CmRoll:	0	0	0	0
    CmYaw:	0	0	0	0
    Cs:	0	0	0	0
    Cs(f):	0	0	0	0
    Cs(r):	0	0	0	0

    writing force and moment coefficient files.

yPlus yPlus write:
    writing field yPlus
    patch sfera1 y+ : min = 1225.64, max = 17426.1, average = 7746.37
    patch sfera2 y+ : min = 1224.62, max = 17419.2, average = 7742.08
Time = 1.2

smoothSolver:  Solving for Ux, Initial residual = 0.0356043, Final residual = 0.000427576, No Iterations 1
smoothSolver:  Solving for Uy, Initial residual = 0.0188619, Final residual = 0.000228765, No Iterations 1
smoothSolver:  Solving for Uz, Initial residual = 0.0349168, Final residual = 0.000414875, No Iterations 1
GAMG:  Solving for p, Initial residual = 0.227618, Final residual = 0.0226202, No Iterations 2
time step continuity errors : sum local = 5.82532e-05, global = 4.29844e-06, cumulative = -3.9974e-06
smoothSolver:  Solving for omega, Initial residual = 0.052302, Final residual = 0.000457073, No Iterations 1
smoothSolver:  Solving for k, Initial residual = 0.0617117, Final residual = 0.0005351, No Iterations 1
smoothSolver:  Solving for ReThetat, Initial residual = 0.130654, Final residual = 6.22787e-08, No Iterations 1
smoothSolver:  Solving for gammaInt, Initial residual = 0.0989637, Final residual = 0.0938913, No Iterations 100
ExecutionTime = 44.12 s  ClockTime = 44 s

forceCoeffs forceCoeffs write:
    Coefficient	Total	Pressure	Viscous	Internal
    Cd:	0	0	0	0
    Cd(f):	0	0	0	0
    Cd(r):	0	0	0	0
    Cl:	0	0	0	0
    Cl(f):	0	0	0	0
    Cl(r):	0	0	0	0
    CmPitch:	0	0	0	0
    CmRoll:	0	0	0	0
    CmYaw:	0	0	0	0
    Cs:	0	0	0	0
    Cs(f):	0	0	0	0
    Cs(r):	0	0	0	0

    writing force and moment coefficient files.

yPlus yPlus write:
    writing field yPlus
    patch sfera1 y+ : min = 1037.16, max = 17585.7, average = 7723.56
    patch sfera2 y+ : min = 1037.22, max = 17577.3, average = 7718.6
Time = 1.3

smoothSolver:  Solving for Ux, Initial residual = 0.0425425, Final residual = 0.000532118, No Iterations 1
smoothSolver:  Solving for Uy, Initial residual = 0.0218168, Final residual = 0.000265052, No Iterations 1
smoothSolver:  Solving for Uz, Initial residual = 0.0414894, Final residual = 0.000509912, No Iterations 1
GAMG:  Solving for p, Initial residual = 0.31277, Final residual = 0.0227781, No Iterations 2
time step continuity errors : sum local = 3.75392e-05, global = 6.25254e-06, cumulative = 2.25513e-06
smoothSolver:  Solving for omega, Initial residual = 0.0478468, Final residual = 0.00042085, No Iterations 1
smoothSolver:  Solving for k, Initial residual = 0.055923, Final residual = 0.000487887, No Iterations 1
smoothSolver:  Solving for ReThetat, Initial residual = 0.110229, Final residual = 5.06571e-08, No Iterations 1
smoothSolver:  Solving for gammaInt, Initial residual = 0.0940595, Final residual = 0.0892722, No Iterations 100
ExecutionTime = 47.7 s  ClockTime = 48 s

forceCoeffs forceCoeffs write:
    Coefficient	Total	Pressure	Viscous	Internal
    Cd:	0	0	0	0
    Cd(f):	0	0	0	0
    Cd(r):	0	0	0	0
    Cl:	0	0	0	0
    Cl(f):	0	0	0	0
    Cl(r):	0	0	0	0
    CmPitch:	0	0	0	0
    CmRoll:	0	0	0	0
    CmYaw:	0	0	0	0
    Cs:	0	0	0	0
    Cs(f):	0	0	0	0
    Cs(r):	0	0	0	0

    writing force and moment coefficient files.

yPlus yPlus write:
    writing field yPlus
    patch sfera1 y+ : min = 910.501, max = 17759.7, average = 7714.98
    patch sfera2 y+ : min = 909.997, max = 17752.3, average = 7710.93
Time = 1.4

smoothSolver:  Solving for Ux, Initial residual = 0.0423421, Final residual = 0.000534919, No Iterations 1
smoothSolver:  Solving for Uy, Initial residual = 0.0201227, Final residual = 0.000246671, No Iterations 1
smoothSolver:  Solving for Uz, Initial residual = 0.0395134, Final residual = 0.000489073, No Iterations 1
GAMG:  Solving for p, Initial residual = 0.348957, Final residual = 0.0276331, No Iterations 2
time step continuity errors : sum local = 3.63078e-05, global = 6.21168e-06, cumulative = 8.46681e-06
smoothSolver:  Solving for omega, Initial residual = 0.0439818, Final residual = 0.000389385, No Iterations 1
smoothSolver:  Solving for k, Initial residual = 0.0509721, Final residual = 0.000447518, No Iterations 1
smoothSolver:  Solving for ReThetat, Initial residual = 0.0944002, Final residual = 4.19662e-08, No Iterations 1
smoothSolver:  Solving for gammaInt, Initial residual = 0.0900405, Final residual = 0.0858303, No Iterations 100
ExecutionTime = 51.91 s  ClockTime = 52 s

forceCoeffs forceCoeffs write:
    Coefficient	Total	Pressure	Viscous	Internal
    Cd:	0	0	0	0
    Cd(f):	0	0	0	0
    Cd(r):	0	0	0	0
    Cl:	0	0	0	0
    Cl(f):	0	0	0	0
    Cl(r):	0	0	0	0
    CmPitch:	0	0	0	0
    CmRoll:	0	0	0	0
    CmYaw:	0	0	0	0
    Cs:	0	0	0	0
    Cs(f):	0	0	0	0
    Cs(r):	0	0	0	0

    writing force and moment coefficient files.

yPlus yPlus write:
    writing field yPlus
    patch sfera1 y+ : min = 865.656, max = 17887.9, average = 7700.63
    patch sfera2 y+ : min = 864.997, max = 17884.1, average = 7698.78
Time = 1.5

smoothSolver:  Solving for Ux, Initial residual = 0.0359846, Final residual = 0.000452368, No Iterations 1
smoothSolver:  Solving for Uy, Initial residual = 0.0155518, Final residual = 0.000190581, No Iterations 1
smoothSolver:  Solving for Uz, Initial residual = 0.031542, Final residual = 0.000386715, No Iterations 1
GAMG:  Solving for p, Initial residual = 0.184815, Final residual = 0.0175373, No Iterations 2
time step continuity errors : sum local = 3.89417e-05, global = 3.37829e-06, cumulative = 1.18451e-05
smoothSolver:  Solving for omega, Initial residual = 0.0406571, Final residual = 0.000362274, No Iterations 1
smoothSolver:  Solving for k, Initial residual = 0.0467559, Final residual = 0.0004131, No Iterations 1
smoothSolver:  Solving for ReThetat, Initial residual = 0.0819933, Final residual = 3.53759e-08, No Iterations 1
smoothSolver:  Solving for gammaInt, Initial residual = 0.0868937, Final residual = 0.0821386, No Iterations 100
ExecutionTime = 55.6 s  ClockTime = 56 s

forceCoeffs forceCoeffs write:
    Coefficient	Total	Pressure	Viscous	Internal
    Cd:	0	0	0	0
    Cd(f):	0	0	0	0
    Cd(r):	0	0	0	0
    Cl:	0	0	0	0
    Cl(f):	0	0	0	0
    Cl(r):	0	0	0	0
    CmPitch:	0	0	0	0
    CmRoll:	0	0	0	0
    CmYaw:	0	0	0	0
    Cs:	0	0	0	0
    Cs(f):	0	0	0	0
    Cs(r):	0	0	0	0

    writing force and moment coefficient files.

yPlus yPlus write:
    writing field yPlus
    patch sfera1 y+ : min = 867.619, max = 17941.8, average = 7664.05
    patch sfera2 y+ : min = 867.093, max = 17943.1, average = 7663.69
Time = 1.6

smoothSolver:  Solving for Ux, Initial residual = 0.0251797, Final residual = 0.000310161, No Iterations 1
smoothSolver:  Solving for Uy, Initial residual = 0.0106872, Final residual = 0.000128377, No Iterations 1
smoothSolver:  Solving for Uz, Initial residual = 0.0212883, Final residual = 0.000253401, No Iterations 1
GAMG:  Solving for p, Initial residual = 0.127841, Final residual = 0.00634602, No Iterations 3
time step continuity errors : sum local = 1.84072e-05, global = 3.14931e-07, cumulative = 1.216e-05
smoothSolver:  Solving for omega, Initial residual = 0.0377929, Final residual = 0.000338901, No Iterations 1
smoothSolver:  Solving for k, Initial residual = 0.0431338, Final residual = 0.000383483, No Iterations 1
smoothSolver:  Solving for ReThetat, Initial residual = 0.0721177, Final residual = 3.03063e-08, No Iterations 1
smoothSolver:  Solving for gammaInt, Initial residual = 0.0831372, Final residual = 0.0787934, No Iterations 100
ExecutionTime = 59.24 s  ClockTime = 59 s

forceCoeffs forceCoeffs write:
    Coefficient	Total	Pressure	Viscous	Internal
    Cd:	0	0	0	0
    Cd(f):	0	0	0	0
    Cd(r):	0	0	0	0
    Cl:	0	0	0	0
    Cl(f):	0	0	0	0
    Cl(r):	0	0	0	0
    CmPitch:	0	0	0	0
    CmRoll:	0	0	0	0
    CmYaw:	0	0	0	0
    Cs:	0	0	0	0
    Cs(f):	0	0	0	0
    Cs(r):	0	0	0	0

    writing force and moment coefficient files.

yPlus yPlus write:
    writing field yPlus
    patch sfera1 y+ : min = 887.418, max = 17919.8, average = 7597.33
    patch sfera2 y+ : min = 886.213, max = 17925.2, average = 7597.49
Time = 1.7

smoothSolver:  Solving for Ux, Initial residual = 0.017416, Final residual = 0.000207875, No Iterations 1
smoothSolver:  Solving for Uy, Initial residual = 0.0086879, Final residual = 0.000104391, No Iterations 1
smoothSolver:  Solving for Uz, Initial residual = 0.0157823, Final residual = 0.000184885, No Iterations 1
GAMG:  Solving for p, Initial residual = 0.109497, Final residual = 0.00496502, No Iterations 3
time step continuity errors : sum local = 1.47167e-05, global = -6.16213e-07, cumulative = 1.15438e-05
smoothSolver:  Solving for omega, Initial residual = 0.0352701, Final residual = 0.000318183, No Iterations 1
smoothSolver:  Solving for k, Initial residual = 0.0400021, Final residual = 0.000357824, No Iterations 1
smoothSolver:  Solving for ReThetat, Initial residual = 0.0641204, Final residual = 2.63645e-08, No Iterations 1
smoothSolver:  Solving for gammaInt, Initial residual = 0.0806095, Final residual = 0.076415, No Iterations 100
ExecutionTime = 62.91 s  ClockTime = 63 s

forceCoeffs forceCoeffs write:
    Coefficient	Total	Pressure	Viscous	Internal
    Cd:	0	0	0	0
    Cd(f):	0	0	0	0
    Cd(r):	0	0	0	0
    Cl:	0	0	0	0
    Cl(f):	0	0	0	0
    Cl(r):	0	0	0	0
    CmPitch:	0	0	0	0
    CmRoll:	0	0	0	0
    CmYaw:	0	0	0	0
    Cs:	0	0	0	0
    Cs(f):	0	0	0	0
    Cs(r):	0	0	0	0

    writing force and moment coefficient files.

yPlus yPlus write:
    writing field yPlus
    patch sfera1 y+ : min = 915.178, max = 17849.6, average = 7512.55
    patch sfera2 y+ : min = 912.613, max = 17856.7, average = 7512.93
Time = 1.8

smoothSolver:  Solving for Ux, Initial residual = 0.0178795, Final residual = 0.000220228, No Iterations 1
smoothSolver:  Solving for Uy, Initial residual = 0.01041, Final residual = 0.000127513, No Iterations 1
smoothSolver:  Solving for Uz, Initial residual = 0.0174965, Final residual = 0.000213945, No Iterations 1
GAMG:  Solving for p, Initial residual = 0.116078, Final residual = 0.00963669, No Iterations 2
time step continuity errors : sum local = 2.27702e-05, global = -2.68893e-06, cumulative = 8.8549e-06
smoothSolver:  Solving for omega, Initial residual = 0.0330322, Final residual = 0.000299688, No Iterations 1
smoothSolver:  Solving for k, Initial residual = 0.0372788, Final residual = 0.000335416, No Iterations 1
smoothSolver:  Solving for ReThetat, Initial residual = 0.0576042, Final residual = 2.32781e-08, No Iterations 1
smoothSolver:  Solving for gammaInt, Initial residual = 0.0781022, Final residual = 0.0737277, No Iterations 100
ExecutionTime = 66.95 s  ClockTime = 67 s

forceCoeffs forceCoeffs write:
    Coefficient	Total	Pressure	Viscous	Internal
    Cd:	0	0	0	0
    Cd(f):	0	0	0	0
    Cd(r):	0	0	0	0
    Cl:	0	0	0	0
    Cl(f):	0	0	0	0
    Cl(r):	0	0	0	0
    CmPitch:	0	0	0	0
    CmRoll:	0	0	0	0
    CmYaw:	0	0	0	0
    Cs:	0	0	0	0
    Cs(f):	0	0	0	0
    Cs(r):	0	0	0	0

    writing force and moment coefficient files.

yPlus yPlus write:
    writing field yPlus
    patch sfera1 y+ : min = 794.41, max = 17767.5, average = 7428.84
    patch sfera2 y+ : min = 819.323, max = 17774.2, average = 7429.29
Time = 1.9

smoothSolver:  Solving for Ux, Initial residual = 0.019051, Final residual = 0.000237549, No Iterations 1
smoothSolver:  Solving for Uy, Initial residual = 0.0102977, Final residual = 0.00012639, No Iterations 1
smoothSolver:  Solving for Uz, Initial residual = 0.0180659, Final residual = 0.000222683, No Iterations 1
GAMG:  Solving for p, Initial residual = 0.139355, Final residual = 0.0118595, No Iterations 2
time step continuity errors : sum local = 2.00917e-05, global = -4.04304e-06, cumulative = 4.81186e-06
smoothSolver:  Solving for omega, Initial residual = 0.0310484, Final residual = 0.000283095, No Iterations 1
smoothSolver:  Solving for k, Initial residual = 0.0348692, Final residual = 0.000315487, No Iterations 1
smoothSolver:  Solving for ReThetat, Initial residual = 0.0522368, Final residual = 2.08095e-08, No Iterations 1
smoothSolver:  Solving for gammaInt, Initial residual = 0.0753069, Final residual = 0.0715776, No Iterations 100
ExecutionTime = 70.53 s  ClockTime = 71 s

forceCoeffs forceCoeffs write:
    Coefficient	Total	Pressure	Viscous	Internal
    Cd:	0	0	0	0
    Cd(f):	0	0	0	0
    Cd(r):	0	0	0	0
    Cl:	0	0	0	0
    Cl(f):	0	0	0	0
    Cl(r):	0	0	0	0
    CmPitch:	0	0	0	0
    CmRoll:	0	0	0	0
    CmYaw:	0	0	0	0
    Cs:	0	0	0	0
    Cs(f):	0	0	0	0
    Cs(r):	0	0	0	0

    writing force and moment coefficient files.

yPlus yPlus write:
    writing field yPlus
    patch sfera1 y+ : min = 653.56, max = 17699.5, average = 7360.28
    patch sfera2 y+ : min = 674.264, max = 17704.1, average = 7360.48
Time = 2

smoothSolver:  Solving for Ux, Initial residual = 0.0182524, Final residual = 0.000227365, No Iterations 1
smoothSolver:  Solving for Uy, Initial residual = 0.00855042, Final residual = 0.000103906, No Iterations 1
smoothSolver:  Solving for Uz, Initial residual = 0.0161572, Final residual = 0.00019703, No Iterations 1
GAMG:  Solving for p, Initial residual = 0.228993, Final residual = 0.0217719, No Iterations 2
time step continuity errors : sum local = 2.03372e-05, global = -2.73465e-06, cumulative = 2.07721e-06
smoothSolver:  Solving for omega, Initial residual = 0.0292725, Final residual = 0.000268089, No Iterations 1
smoothSolver:  Solving for k, Initial residual = 0.0327233, Final residual = 0.000297628, No Iterations 1
smoothSolver:  Solving for ReThetat, Initial residual = 0.0477585, Final residual = 1.87992e-08, No Iterations 1
smoothSolver:  Solving for gammaInt, Initial residual = 0.0737426, Final residual = 0.0698843, No Iterations 100
ExecutionTime = 74.14 s  ClockTime = 74 s

forceCoeffs forceCoeffs write:
    Coefficient	Total	Pressure	Viscous	Internal
    Cd:	0	0	0	0
    Cd(f):	0	0	0	0
    Cd(r):	0	0	0	0
    Cl:	0	0	0	0
    Cl(f):	0	0	0	0
    Cl(r):	0	0	0	0
    CmPitch:	0	0	0	0
    CmRoll:	0	0	0	0
    CmYaw:	0	0	0	0
    Cs:	0	0	0	0
    Cs(f):	0	0	0	0
    Cs(r):	0	0	0	0

    writing force and moment coefficient files.

yPlus yPlus write:
    writing field yPlus
    patch sfera1 y+ : min = 625.528, max = 17659.1, average = 7309.21
    patch sfera2 y+ : min = 620.336, max = 17660.9, average = 7307.55
Time = 2.1

smoothSolver:  Solving for Ux, Initial residual = 0.0156273, Final residual = 0.000191113, No Iterations 1
smoothSolver:  Solving for Uy, Initial residual = 0.00663506, Final residual = 7.9224e-05, No Iterations 1
smoothSolver:  Solving for Uz, Initial residual = 0.0135042, Final residual = 0.00015957, No Iterations 1
GAMG:  Solving for p, Initial residual = 0.179744, Final residual = 0.00776122, No Iterations 3
time step continuity errors : sum local = 8.50838e-06, global = -1.07604e-06, cumulative = 1.00117e-06
smoothSolver:  Solving for omega, Initial residual = 0.027664, Final residual = 0.000254475, No Iterations 1
smoothSolver:  Solving for k, Initial residual = 0.0308135, Final residual = 0.00028152, No Iterations 1
smoothSolver:  Solving for ReThetat, Initial residual = 0.0439763, Final residual = 1.71406e-08, No Iterations 1
smoothSolver:  Solving for gammaInt, Initial residual = 0.0893173, Final residual = 0.0844334, No Iterations 100
ExecutionTime = 77.8 s  ClockTime = 78 s

forceCoeffs forceCoeffs write:
    Coefficient	Total	Pressure	Viscous	Internal
    Cd:	0	0	0	0
    Cd(f):	0	0	0	0
    Cd(r):	0	0	0	0
    Cl:	0	0	0	0
    Cl(f):	0	0	0	0
    Cl(r):	0	0	0	0
    CmPitch:	0	0	0	0
    CmRoll:	0	0	0	0
    CmYaw:	0	0	0	0
    Cs:	0	0	0	0
    Cs(f):	0	0	0	0
    Cs(r):	0	0	0	0

    writing force and moment coefficient files.

yPlus yPlus write:
    writing field yPlus
    patch sfera1 y+ : min = 719.065, max = 17650, average = 7272.21
    patch sfera2 y+ : min = 701.049, max = 17649.3, average = 7269.53
Time = 2.2

smoothSolver:  Solving for Ux, Initial residual = 0.0125885, Final residual = 0.000150585, No Iterations 1
smoothSolver:  Solving for Uy, Initial residual = 0.00568233, Final residual = 6.735e-05, No Iterations 1
smoothSolver:  Solving for Uz, Initial residual = 0.0118598, Final residual = 0.000138483, No Iterations 1
GAMG:  Solving for p, Initial residual = 0.116349, Final residual = 0.0116332, No Iterations 2
time step continuity errors : sum local = 1.76363e-05, global = 2.915e-07, cumulative = 1.29267e-06
smoothSolver:  Solving for omega, Initial residual = 0.026215, Final residual = 0.000242159, No Iterations 1
smoothSolver:  Solving for k, Initial residual = 0.0290925, Final residual = 0.000266923, No Iterations 1
smoothSolver:  Solving for ReThetat, Initial residual = 0.0407481, Final residual = 1.57613e-08, No Iterations 1
smoothSolver:  Solving for gammaInt, Initial residual = 0.0867058, Final residual = 0.0815184, No Iterations 100
ExecutionTime = 81.3 s  ClockTime = 82 s

forceCoeffs forceCoeffs write:
    Coefficient	Total	Pressure	Viscous	Internal
    Cd:	0	0	0	0
    Cd(f):	0	0	0	0
    Cd(r):	0	0	0	0
    Cl:	0	0	0	0
    Cl(f):	0	0	0	0
    Cl(r):	0	0	0	0
    CmPitch:	0	0	0	0
    CmRoll:	0	0	0	0
    CmYaw:	0	0	0	0
    Cs:	0	0	0	0
    Cs(f):	0	0	0	0
    Cs(r):	0	0	0	0

    writing force and moment coefficient files.

yPlus yPlus write:
    writing field yPlus
    patch sfera1 y+ : min = 850.041, max = 17661.5, average = 7243.59
    patch sfera2 y+ : min = 830.548, max = 17659.5, average = 7241
Time = 2.3

smoothSolver:  Solving for Ux, Initial residual = 0.0128026, Final residual = 0.000153584, No Iterations 1
smoothSolver:  Solving for Uy, Initial residual = 0.00617384, Final residual = 7.40508e-05, No Iterations 1
smoothSolver:  Solving for Uz, Initial residual = 0.0120515, Final residual = 0.000141813, No Iterations 1
GAMG:  Solving for p, Initial residual = 0.105428, Final residual = 0.0100573, No Iterations 2
time step continuity errors : sum local = 1.51158e-05, global = 1.16213e-06, cumulative = 2.4548e-06
smoothSolver:  Solving for omega, Initial residual = 0.0248898, Final residual = 0.000230866, No Iterations 1
smoothSolver:  Solving for k, Initial residual = 0.0275308, Final residual = 0.000253678, No Iterations 1
smoothSolver:  Solving for ReThetat, Initial residual = 0.0379656, Final residual = 1.461e-08, No Iterations 1
smoothSolver:  Solving for gammaInt, Initial residual = 0.0845329, Final residual = 0.0793256, No Iterations 100
ExecutionTime = 84.75 s  ClockTime = 85 s

forceCoeffs forceCoeffs write:
    Coefficient	Total	Pressure	Viscous	Internal
    Cd:	0	0	0	0
    Cd(f):	0	0	0	0
    Cd(r):	0	0	0	0
    Cl:	0	0	0	0
    Cl(f):	0	0	0	0
    Cl(r):	0	0	0	0
    CmPitch:	0	0	0	0
    CmRoll:	0	0	0	0
    CmYaw:	0	0	0	0
    Cs:	0	0	0	0
    Cs(f):	0	0	0	0
    Cs(r):	0	0	0	0

    writing force and moment coefficient files.

yPlus yPlus write:
    writing field yPlus
    patch sfera1 y+ : min = 930.45, max = 17681.7, average = 7219.32
    patch sfera2 y+ : min = 926.596, max = 17679.7, average = 7217.2
Time = 2.4

smoothSolver:  Solving for Ux, Initial residual = 0.0126446, Final residual = 0.000152366, No Iterations 1
smoothSolver:  Solving for Uy, Initial residual = 0.00611023, Final residual = 7.39242e-05, No Iterations 1
smoothSolver:  Solving for Uz, Initial residual = 0.0114936, Final residual = 0.00013602, No Iterations 1
GAMG:  Solving for p, Initial residual = 0.11792, Final residual = 0.0106289, No Iterations 2
time step continuity errors : sum local = 1.24639e-05, global = 2.21174e-06, cumulative = 4.66653e-06
smoothSolver:  Solving for omega, Initial residual = 0.0236745, Final residual = 0.000220485, No Iterations 1
smoothSolver:  Solving for k, Initial residual = 0.0261164, Final residual = 0.000241632, No Iterations 1
smoothSolver:  Solving for ReThetat, Initial residual = 0.035546, Final residual = 1.3641e-08, No Iterations 1
smoothSolver:  Solving for gammaInt, Initial residual = 0.082118, Final residual = 0.0774407, No Iterations 100
ExecutionTime = 88.19 s  ClockTime = 88 s

forceCoeffs forceCoeffs write:
    Coefficient	Total	Pressure	Viscous	Internal
    Cd:	0	0	0	0
    Cd(f):	0	0	0	0
    Cd(r):	0	0	0	0
    Cl:	0	0	0	0
    Cl(f):	0	0	0	0
    Cl(r):	0	0	0	0
    CmPitch:	0	0	0	0
    CmRoll:	0	0	0	0
    CmYaw:	0	0	0	0
    Cs:	0	0	0	0
    Cs(f):	0	0	0	0
    Cs(r):	0	0	0	0

    writing force and moment coefficient files.

yPlus yPlus write:
    writing field yPlus
    patch sfera1 y+ : min = 921.941, max = 17700.8, average = 7197.08
    patch sfera2 y+ : min = 918.145, max = 17699.9, average = 7195.64
Time = 2.5

smoothSolver:  Solving for Ux, Initial residual = 0.0119426, Final residual = 0.000144741, No Iterations 1
smoothSolver:  Solving for Uy, Initial residual = 0.00550065, Final residual = 6.62482e-05, No Iterations 1
smoothSolver:  Solving for Uz, Initial residual = 0.010375, Final residual = 0.000122859, No Iterations 1
GAMG:  Solving for p, Initial residual = 0.167606, Final residual = 0.0157759, No Iterations 2
time step continuity errors : sum local = 1.12527e-05, global = 2.01222e-06, cumulative = 6.67876e-06
smoothSolver:  Solving for omega, Initial residual = 0.0225602, Final residual = 0.00021097, No Iterations 1
smoothSolver:  Solving for k, Initial residual = 0.0248211, Final residual = 0.000230572, No Iterations 1
smoothSolver:  Solving for ReThetat, Initial residual = 0.0334248, Final residual = 1.2819e-08, No Iterations 1
smoothSolver:  Solving for gammaInt, Initial residual = 0.0802191, Final residual = 0.0753618, No Iterations 100
ExecutionTime = 91.73 s  ClockTime = 92 s

forceCoeffs forceCoeffs write:
    Coefficient	Total	Pressure	Viscous	Internal
    Cd:	0	0	0	0
    Cd(f):	0	0	0	0
    Cd(r):	0	0	0	0
    Cl:	0	0	0	0
    Cl(f):	0	0	0	0
    Cl(r):	0	0	0	0
    CmPitch:	0	0	0	0
    CmRoll:	0	0	0	0
    CmYaw:	0	0	0	0
    Cs:	0	0	0	0
    Cs(f):	0	0	0	0
    Cs(r):	0	0	0	0

    writing force and moment coefficient files.

yPlus yPlus write:
    writing field yPlus
    patch sfera1 y+ : min = 919.513, max = 17712.7, average = 7175.62
    patch sfera2 y+ : min = 915.641, max = 17713.5, average = 7175.45
Time = 2.6

smoothSolver:  Solving for Ux, Initial residual = 0.0107266, Final residual = 0.000129522, No Iterations 1
smoothSolver:  Solving for Uy, Initial residual = 0.00471976, Final residual = 5.60418e-05, No Iterations 1
smoothSolver:  Solving for Uz, Initial residual = 0.00916545, Final residual = 0.000107587, No Iterations 1
GAMG:  Solving for p, Initial residual = 0.106079, Final residual = 0.0104844, No Iterations 2
time step continuity errors : sum local = 1.0273e-05, global = 9.56769e-07, cumulative = 7.63553e-06
smoothSolver:  Solving for omega, Initial residual = 0.0215353, Final residual = 0.000202216, No Iterations 1
smoothSolver:  Solving for k, Initial residual = 0.0236318, Final residual = 0.000220397, No Iterations 1
smoothSolver:  Solving for ReThetat, Initial residual = 0.0315474, Final residual = 1.21126e-08, No Iterations 1
smoothSolver:  Solving for gammaInt, Initial residual = 0.0790919, Final residual = 0.0733814, No Iterations 100
ExecutionTime = 95.57 s  ClockTime = 96 s

forceCoeffs forceCoeffs write:
    Coefficient	Total	Pressure	Viscous	Internal
    Cd:	0	0	0	0
    Cd(f):	0	0	0	0
    Cd(r):	0	0	0	0
    Cl:	0	0	0	0
    Cl(f):	0	0	0	0
    Cl(r):	0	0	0	0
    CmPitch:	0	0	0	0
    CmRoll:	0	0	0	0
    CmYaw:	0	0	0	0
    Cs:	0	0	0	0
    Cs(f):	0	0	0	0
    Cs(r):	0	0	0	0

    writing force and moment coefficient files.

yPlus yPlus write:
    writing field yPlus
    patch sfera1 y+ : min = 921.775, max = 17715.3, average = 7148.24
    patch sfera2 y+ : min = 917.723, max = 17717.7, average = 7148.48
Time = 2.7

smoothSolver:  Solving for Ux, Initial residual = 0.00910587, Final residual = 0.000108674, No Iterations 1
smoothSolver:  Solving for Uy, Initial residual = 0.00398404, Final residual = 4.67577e-05, No Iterations 1
smoothSolver:  Solving for Uz, Initial residual = 0.0079512, Final residual = 9.17554e-05, No Iterations 1
GAMG:  Solving for p, Initial residual = 0.0681622, Final residual = 0.00643198, No Iterations 2
time step continuity errors : sum local = 8.96591e-06, global = 2.13667e-08, cumulative = 7.65689e-06
smoothSolver:  Solving for omega, Initial residual = 0.0205987, Final residual = 0.000194135, No Iterations 1
smoothSolver:  Solving for k, Initial residual = 0.0225385, Final residual = 0.00021104, No Iterations 1
smoothSolver:  Solving for ReThetat, Initial residual = 0.0298772, Final residual = 1.1499e-08, No Iterations 1
smoothSolver:  Solving for gammaInt, Initial residual = 0.0773504, Final residual = 0.0717821, No Iterations 100
ExecutionTime = 99.38 s  ClockTime = 100 s

forceCoeffs forceCoeffs write:
    Coefficient	Total	Pressure	Viscous	Internal
    Cd:	0	0	0	0
    Cd(f):	0	0	0	0
    Cd(r):	0	0	0	0
    Cl:	0	0	0	0
    Cl(f):	0	0	0	0
    Cl(r):	0	0	0	0
    CmPitch:	0	0	0	0
    CmRoll:	0	0	0	0
    CmYaw:	0	0	0	0
    Cs:	0	0	0	0
    Cs(f):	0	0	0	0
    Cs(r):	0	0	0	0

    writing force and moment coefficient files.

yPlus yPlus write:
    writing field yPlus
    patch sfera1 y+ : min = 926.225, max = 17710.1, average = 7114.68
    patch sfera2 y+ : min = 921.95, max = 17713.6, average = 7115.21
Time = 2.8

smoothSolver:  Solving for Ux, Initial residual = 0.00779204, Final residual = 9.26386e-05, No Iterations 1
smoothSolver:  Solving for Uy, Initial residual = 0.00358276, Final residual = 4.1659e-05, No Iterations 1
smoothSolver:  Solving for Uz, Initial residual = 0.00708036, Final residual = 8.13938e-05, No Iterations 1
GAMG:  Solving for p, Initial residual = 0.0559617, Final residual = 0.0051331, No Iterations 2
time step continuity errors : sum local = 8.15267e-06, global = -4.21751e-07, cumulative = 7.23514e-06
smoothSolver:  Solving for omega, Initial residual = 0.0197314, Final residual = 0.000186627, No Iterations 1
smoothSolver:  Solving for k, Initial residual = 0.0215332, Final residual = 0.000202428, No Iterations 1
smoothSolver:  Solving for ReThetat, Initial residual = 0.0283817, Final residual = 1.09582e-08, No Iterations 1
smoothSolver:  Solving for gammaInt, Initial residual = 0.0757187, Final residual = 0.0700956, No Iterations 100
ExecutionTime = 103.59 s  ClockTime = 104 s

forceCoeffs forceCoeffs write:
    Coefficient	Total	Pressure	Viscous	Internal
    Cd:	0	0	0	0
    Cd(f):	0	0	0	0
    Cd(r):	0	0	0	0
    Cl:	0	0	0	0
    Cl(f):	0	0	0	0
    Cl(r):	0	0	0	0
    CmPitch:	0	0	0	0
    CmRoll:	0	0	0	0
    CmYaw:	0	0	0	0
    Cs:	0	0	0	0
    Cs(f):	0	0	0	0
    Cs(r):	0	0	0	0

    writing force and moment coefficient files.

yPlus yPlus write:
    writing field yPlus
    patch sfera1 y+ : min = 930.478, max = 17700.7, average = 7078.35
    patch sfera2 y+ : min = 906.589, max = 17704.7, average = 7078.96
Time = 2.9

smoothSolver:  Solving for Ux, Initial residual = 0.00682693, Final residual = 8.10398e-05, No Iterations 1
smoothSolver:  Solving for Uy, Initial residual = 0.00339202, Final residual = 3.94369e-05, No Iterations 1
smoothSolver:  Solving for Uz, Initial residual = 0.00655136, Final residual = 7.47011e-05, No Iterations 1
GAMG:  Solving for p, Initial residual = 0.0539889, Final residual = 0.00474897, No Iterations 2
time step continuity errors : sum local = 7.26403e-06, global = -7.38841e-07, cumulative = 6.4963e-06
smoothSolver:  Solving for omega, Initial residual = 0.018924, Final residual = 0.000179635, No Iterations 1
smoothSolver:  Solving for k, Initial residual = 0.0206117, Final residual = 0.000194454, No Iterations 1
smoothSolver:  Solving for ReThetat, Initial residual = 0.0270336, Final residual = 1.04751e-08, No Iterations 1
smoothSolver:  Solving for gammaInt, Initial residual = 0.0611307, Final residual = 0.0566049, No Iterations 100
ExecutionTime = 107.16 s  ClockTime = 108 s

forceCoeffs forceCoeffs write:
    Coefficient	Total	Pressure	Viscous	Internal
    Cd:	0	0	0	0
    Cd(f):	0	0	0	0
    Cd(r):	0	0	0	0
    Cl:	0	0	0	0
    Cl(f):	0	0	0	0
    Cl(r):	0	0	0	0
    CmPitch:	0	0	0	0
    CmRoll:	0	0	0	0
    CmYaw:	0	0	0	0
    Cs:	0	0	0	0
    Cs(f):	0	0	0	0
    Cs(r):	0	0	0	0

    writing force and moment coefficient files.

yPlus yPlus write:
    writing field yPlus
    patch sfera1 y+ : min = 876.321, max = 17691, average = 7042.49
    patch sfera2 y+ : min = 850.378, max = 17694.8, average = 7042.86
Time = 3

smoothSolver:  Solving for Ux, Initial residual = 0.00613743, Final residual = 7.25949e-05, No Iterations 1
smoothSolver:  Solving for Uy, Initial residual = 0.00316973, Final residual = 3.68192e-05, No Iterations 1
smoothSolver:  Solving for Uz, Initial residual = 0.00607446, Final residual = 6.83253e-05, No Iterations 1
GAMG:  Solving for p, Initial residual = 0.0573717, Final residual = 0.00505677, No Iterations 2
time step continuity errors : sum local = 6.59305e-06, global = -1.20321e-06, cumulative = 5.29309e-06
smoothSolver:  Solving for omega, Initial residual = 0.0181722, Final residual = 0.000173114, No Iterations 1
smoothSolver:  Solving for k, Initial residual = 0.0197574, Final residual = 0.000187041, No Iterations 1
smoothSolver:  Solving for ReThetat, Initial residual = 0.0258114, Final residual = 1.00388e-08, No Iterations 1
smoothSolver:  Solving for gammaInt, Initial residual = 0.0604882, Final residual = 0.056135, No Iterations 100
ExecutionTime = 110.75 s  ClockTime = 111 s

forceCoeffs forceCoeffs write:
    Coefficient	Total	Pressure	Viscous	Internal
    Cd:	0	0	0	0
    Cd(f):	0	0	0	0
    Cd(r):	0	0	0	0
    Cl:	0	0	0	0
    Cl(f):	0	0	0	0
    Cl(r):	0	0	0	0
    CmPitch:	0	0	0	0
    CmRoll:	0	0	0	0
    CmYaw:	0	0	0	0
    Cs:	0	0	0	0
    Cs(f):	0	0	0	0
    Cs(r):	0	0	0	0

    writing force and moment coefficient files.

yPlus yPlus write:
    writing field yPlus
    patch sfera1 y+ : min = 793.907, max = 17684, average = 7009.15
    patch sfera2 y+ : min = 798.659, max = 17687.2, average = 7009.08
Time = 3.1

smoothSolver:  Solving for Ux, Initial residual = 0.00563591, Final residual = 6.62315e-05, No Iterations 1
smoothSolver:  Solving for Uy, Initial residual = 0.00303158, Final residual = 3.52487e-05, No Iterations 1
smoothSolver:  Solving for Uz, Initial residual = 0.0056688, Final residual = 6.35063e-05, No Iterations 1
GAMG:  Solving for p, Initial residual = 0.0673235, Final residual = 0.00608314, No Iterations 2
time step continuity errors : sum local = 6.11763e-06, global = -9.49364e-07, cumulative = 4.34372e-06
smoothSolver:  Solving for omega, Initial residual = 0.0174712, Final residual = 0.000167064, No Iterations 1
smoothSolver:  Solving for k, Initial residual = 0.0189611, Final residual = 0.000180129, No Iterations 1
smoothSolver:  Solving for ReThetat, Initial residual = 0.0246974, Final residual = 9.64184e-09, No Iterations 1
smoothSolver:  Solving for gammaInt, Initial residual = 0.0593143, Final residual = 0.0544208, No Iterations 100
ExecutionTime = 114.19 s  ClockTime = 115 s

forceCoeffs forceCoeffs write:
    Coefficient	Total	Pressure	Viscous	Internal
    Cd:	0	0	0	0
    Cd(f):	0	0	0	0
    Cd(r):	0	0	0	0
    Cl:	0	0	0	0
    Cl(f):	0	0	0	0
    Cl(r):	0	0	0	0
    CmPitch:	0	0	0	0
    CmRoll:	0	0	0	0
    CmYaw:	0	0	0	0
    Cs:	0	0	0	0
    Cs(f):	0	0	0	0
    Cs(r):	0	0	0	0

    writing force and moment coefficient files.

yPlus yPlus write:
    writing field yPlus
    patch sfera1 y+ : min = 732.512, max = 17681.2, average = 6979.35
    patch sfera2 y+ : min = 753.521, max = 17683.7, average = 6978.77
Time = 3.2

smoothSolver:  Solving for Ux, Initial residual = 0.00561976, Final residual = 6.56297e-05, No Iterations 1
smoothSolver:  Solving for Uy, Initial residual = 0.00300118, Final residual = 3.51569e-05, No Iterations 1
smoothSolver:  Solving for Uz, Initial residual = 0.00558132, Final residual = 6.27143e-05, No Iterations 1
GAMG:  Solving for p, Initial residual = 0.087612, Final residual = 0.00793648, No Iterations 2
time step continuity errors : sum local = 5.62017e-06, global = -4.55448e-07, cumulative = 3.88828e-06
smoothSolver:  Solving for omega, Initial residual = 0.0168208, Final residual = 0.000161475, No Iterations 1
smoothSolver:  Solving for k, Initial residual = 0.0182167, Final residual = 0.000173665, No Iterations 1
smoothSolver:  Solving for ReThetat, Initial residual = 0.0236766, Final residual = 9.27955e-09, No Iterations 1
smoothSolver:  Solving for gammaInt, Initial residual = 0.058181, Final residual = 0.0539698, No Iterations 100
ExecutionTime = 117.62 s  ClockTime = 118 s

forceCoeffs forceCoeffs write:
    Coefficient	Total	Pressure	Viscous	Internal
    Cd:	0	0	0	0
    Cd(f):	0	0	0	0
    Cd(r):	0	0	0	0
    Cl:	0	0	0	0
    Cl(f):	0	0	0	0
    Cl(r):	0	0	0	0
    CmPitch:	0	0	0	0
    CmRoll:	0	0	0	0
    CmYaw:	0	0	0	0
    Cs:	0	0	0	0
    Cs(f):	0	0	0	0
    Cs(r):	0	0	0	0

    writing force and moment coefficient files.

yPlus yPlus write:
    writing field yPlus
    patch sfera1 y+ : min = 733.868, max = 17682.7, average = 6953.03
    patch sfera2 y+ : min = 714.044, max = 17684.7, average = 6951.87
Time = 3.3

smoothSolver:  Solving for Ux, Initial residual = 0.00561604, Final residual = 6.58482e-05, No Iterations 1
smoothSolver:  Solving for Uy, Initial residual = 0.00297013, Final residual = 3.51879e-05, No Iterations 1
smoothSolver:  Solving for Uz, Initial residual = 0.00548927, Final residual = 6.2281e-05, No Iterations 1
GAMG:  Solving for p, Initial residual = 0.0989241, Final residual = 0.00849622, No Iterations 2
time step continuity errors : sum local = 5.06629e-06, global = -7.73702e-08, cumulative = 3.81091e-06
smoothSolver:  Solving for omega, Initial residual = 0.016212, Final residual = 0.000156187, No Iterations 1
smoothSolver:  Solving for k, Initial residual = 0.0175209, Final residual = 0.000167661, No Iterations 1
smoothSolver:  Solving for ReThetat, Initial residual = 0.0227376, Final residual = 8.94881e-09, No Iterations 1
smoothSolver:  Solving for gammaInt, Initial residual = 0.0578567, Final residual = 0.0531011, No Iterations 100
ExecutionTime = 121.11 s  ClockTime = 122 s

forceCoeffs forceCoeffs write:
    Coefficient	Total	Pressure	Viscous	Internal
    Cd:	0	0	0	0
    Cd(f):	0	0	0	0
    Cd(r):	0	0	0	0
    Cl:	0	0	0	0
    Cl(f):	0	0	0	0
    Cl(r):	0	0	0	0
    CmPitch:	0	0	0	0
    CmRoll:	0	0	0	0
    CmYaw:	0	0	0	0
    Cs:	0	0	0	0
    Cs(f):	0	0	0	0
    Cs(r):	0	0	0	0

    writing force and moment coefficient files.

yPlus yPlus write:
    writing field yPlus
    patch sfera1 y+ : min = 695.468, max = 17687.5, average = 6929.27
    patch sfera2 y+ : min = 677.796, max = 17689.4, average = 6927.6
Time = 3.4

smoothSolver:  Solving for Ux, Initial residual = 0.00566091, Final residual = 6.71142e-05, No Iterations 1
smoothSolver:  Solving for Uy, Initial residual = 0.00291651, Final residual = 3.48441e-05, No Iterations 1
smoothSolver:  Solving for Uz, Initial residual = 0.00534041, Final residual = 6.11723e-05, No Iterations 1
GAMG:  Solving for p, Initial residual = 0.0851056, Final residual = 0.00735461, No Iterations 2
time step continuity errors : sum local = 4.84078e-06, global = 1.58271e-07, cumulative = 3.96918e-06
smoothSolver:  Solving for omega, Initial residual = 0.0156394, Final residual = 0.000151189, No Iterations 1
smoothSolver:  Solving for k, Initial residual = 0.0168745, Final residual = 0.000162101, No Iterations 1
smoothSolver:  Solving for ReThetat, Initial residual = 0.02187, Final residual = 8.6469e-09, No Iterations 1
smoothSolver:  Solving for gammaInt, Initial residual = 0.0569568, Final residual = 0.0522587, No Iterations 100
ExecutionTime = 124.54 s  ClockTime = 125 s

forceCoeffs forceCoeffs write:
    Coefficient	Total	Pressure	Viscous	Internal
    Cd:	0	0	0	0
    Cd(f):	0	0	0	0
    Cd(r):	0	0	0	0
    Cl:	0	0	0	0
    Cl(f):	0	0	0	0
    Cl(r):	0	0	0	0
    CmPitch:	0	0	0	0
    CmRoll:	0	0	0	0
    CmYaw:	0	0	0	0
    Cs:	0	0	0	0
    Cs(f):	0	0	0	0
    Cs(r):	0	0	0	0

    writing force and moment coefficient files.

yPlus yPlus write:
    writing field yPlus
    patch sfera1 y+ : min = 658.515, max = 17694.2, average = 6906.93
    patch sfera2 y+ : min = 642.559, max = 17696.2, average = 6904.93
Time = 3.5

smoothSolver:  Solving for Ux, Initial residual = 0.00568204, Final residual = 6.79974e-05, No Iterations 1
smoothSolver:  Solving for Uy, Initial residual = 0.00287345, Final residual = 3.44803e-05, No Iterations 1
smoothSolver:  Solving for Uz, Initial residual = 0.00516685, Final residual = 5.9562e-05, No Iterations 1
GAMG:  Solving for p, Initial residual = 0.0850582, Final residual = 0.00689129, No Iterations 2
time step continuity errors : sum local = 4.236e-06, global = 5.34437e-07, cumulative = 4.50361e-06
smoothSolver:  Solving for omega, Initial residual = 0.0151003, Final residual = 0.000146449, No Iterations 1
smoothSolver:  Solving for k, Initial residual = 0.0162714, Final residual = 0.000156852, No Iterations 1
smoothSolver:  Solving for ReThetat, Initial residual = 0.0210662, Final residual = 8.3703e-09, No Iterations 1
smoothSolver:  Solving for gammaInt, Initial residual = 0.0563647, Final residual = 0.0518325, No Iterations 100
ExecutionTime = 127.97 s  ClockTime = 128 s

forceCoeffs forceCoeffs write:
    Coefficient	Total	Pressure	Viscous	Internal
    Cd:	0	0	0	0
    Cd(f):	0	0	0	0
    Cd(r):	0	0	0	0
    Cl:	0	0	0	0
    Cl(f):	0	0	0	0
    Cl(r):	0	0	0	0
    CmPitch:	0	0	0	0
    CmRoll:	0	0	0	0
    CmYaw:	0	0	0	0
    Cs:	0	0	0	0
    Cs(f):	0	0	0	0
    Cs(r):	0	0	0	0

    writing force and moment coefficient files.

yPlus yPlus write:
    writing field yPlus
    patch sfera1 y+ : min = 622.08, max = 17701.2, average = 6885.16
    patch sfera2 y+ : min = 607.453, max = 17703.6, average = 6882.96
Time = 3.6

smoothSolver:  Solving for Ux, Initial residual = 0.00565674, Final residual = 6.82125e-05, No Iterations 1
smoothSolver:  Solving for Uy, Initial residual = 0.00279901, Final residual = 3.36303e-05, No Iterations 1
smoothSolver:  Solving for Uz, Initial residual = 0.00502773, Final residual = 5.82596e-05, No Iterations 1
GAMG:  Solving for p, Initial residual = 0.0812273, Final residual = 0.00632155, No Iterations 2
time step continuity errors : sum local = 3.74034e-06, global = 7.14576e-07, cumulative = 5.21819e-06
smoothSolver:  Solving for omega, Initial residual = 0.0145933, Final residual = 0.000141951, No Iterations 1
smoothSolver:  Solving for k, Initial residual = 0.0157048, Final residual = 0.000151877, No Iterations 1
smoothSolver:  Solving for ReThetat, Initial residual = 0.0203196, Final residual = 8.11576e-09, No Iterations 1
smoothSolver:  Solving for gammaInt, Initial residual = 0.0554492, Final residual = 0.0508789, No Iterations 100
ExecutionTime = 131.4 s  ClockTime = 132 s

forceCoeffs forceCoeffs write:
    Coefficient	Total	Pressure	Viscous	Internal
    Cd:	0	0	0	0
    Cd(f):	0	0	0	0
    Cd(r):	0	0	0	0
    Cl:	0	0	0	0
    Cl(f):	0	0	0	0
    Cl(r):	0	0	0	0
    CmPitch:	0	0	0	0
    CmRoll:	0	0	0	0
    CmYaw:	0	0	0	0
    Cs:	0	0	0	0
    Cs(f):	0	0	0	0
    Cs(r):	0	0	0	0

    writing force and moment coefficient files.

yPlus yPlus write:
    writing field yPlus
    patch sfera1 y+ : min = 586.604, max = 17707.5, average = 6863.19
    patch sfera2 y+ : min = 573.007, max = 17710.5, average = 6861.16
Time = 3.7

smoothSolver:  Solving for Ux, Initial residual = 0.00548974, Final residual = 6.61529e-05, No Iterations 1
smoothSolver:  Solving for Uy, Initial residual = 0.00267225, Final residual = 3.20308e-05, No Iterations 1
smoothSolver:  Solving for Uz, Initial residual = 0.00491269, Final residual = 5.72461e-05, No Iterations 1
GAMG:  Solving for p, Initial residual = 0.0603486, Final residual = 0.00457122, No Iterations 2
time step continuity errors : sum local = 3.37928e-06, global = 4.97e-07, cumulative = 5.71519e-06
smoothSolver:  Solving for omega, Initial residual = 0.014117, Final residual = 0.000137663, No Iterations 1
smoothSolver:  Solving for k, Initial residual = 0.0151684, Final residual = 0.000147134, No Iterations 1
smoothSolver:  Solving for ReThetat, Initial residual = 0.0196103, Final residual = 7.87457e-09, No Iterations 1
smoothSolver:  Solving for gammaInt, Initial residual = 0.0549069, Final residual = 0.0500796, No Iterations 100
ExecutionTime = 134.81 s  ClockTime = 135 s

forceCoeffs forceCoeffs write:
    Coefficient	Total	Pressure	Viscous	Internal
    Cd:	0	0	0	0
    Cd(f):	0	0	0	0
    Cd(r):	0	0	0	0
    Cl:	0	0	0	0
    Cl(f):	0	0	0	0
    Cl(r):	0	0	0	0
    CmPitch:	0	0	0	0
    CmRoll:	0	0	0	0
    CmYaw:	0	0	0	0
    Cs:	0	0	0	0
    Cs(f):	0	0	0	0
    Cs(r):	0	0	0	0

    writing force and moment coefficient files.

yPlus yPlus write:
    writing field yPlus
    patch sfera1 y+ : min = 553.485, max = 17712.7, average = 6840.65
    patch sfera2 y+ : min = 540.699, max = 17716.1, average = 6839.03
Time = 3.8

smoothSolver:  Solving for Ux, Initial residual = 0.00511288, Final residual = 6.10967e-05, No Iterations 1
smoothSolver:  Solving for Uy, Initial residual = 0.00253305, Final residual = 3.02941e-05, No Iterations 1
smoothSolver:  Solving for Uz, Initial residual = 0.00467204, Final residual = 5.46769e-05, No Iterations 1
GAMG:  Solving for p, Initial residual = 0.0471319, Final residual = 0.00334377, No Iterations 2
time step continuity errors : sum local = 3.01679e-06, global = 2.57692e-07, cumulative = 5.97288e-06
smoothSolver:  Solving for omega, Initial residual = 0.0136685, Final residual = 0.000133602, No Iterations 1
smoothSolver:  Solving for k, Initial residual = 0.0146641, Final residual = 0.00014264, No Iterations 1
smoothSolver:  Solving for ReThetat, Initial residual = 0.0189472, Final residual = 7.64931e-09, No Iterations 1
smoothSolver:  Solving for gammaInt, Initial residual = 0.0542765, Final residual = 0.0494294, No Iterations 100
ExecutionTime = 138.24 s  ClockTime = 139 s

forceCoeffs forceCoeffs write:
    Coefficient	Total	Pressure	Viscous	Internal
    Cd:	0	0	0	0
    Cd(f):	0	0	0	0
    Cd(r):	0	0	0	0
    Cl:	0	0	0	0
    Cl(f):	0	0	0	0
    Cl(r):	0	0	0	0
    CmPitch:	0	0	0	0
    CmRoll:	0	0	0	0
    CmYaw:	0	0	0	0
    Cs:	0	0	0	0
    Cs(f):	0	0	0	0
    Cs(r):	0	0	0	0

    writing force and moment coefficient files.

yPlus yPlus write:
    writing field yPlus
    patch sfera1 y+ : min = 524.474, max = 17716.8, average = 6817.91
    patch sfera2 y+ : min = 404.162, max = 17720.4, average = 6816.8
Time = 3.9

smoothSolver:  Solving for Ux, Initial residual = 0.00460701, Final residual = 5.48368e-05, No Iterations 1
smoothSolver:  Solving for Uy, Initial residual = 0.00244353, Final residual = 2.92468e-05, No Iterations 1
smoothSolver:  Solving for Uz, Initial residual = 0.00439585, Final residual = 5.19693e-05, No Iterations 1
GAMG:  Solving for p, Initial residual = 0.041044, Final residual = 0.00283879, No Iterations 2
time step continuity errors : sum local = 2.88092e-06, global = 1.27616e-07, cumulative = 6.1005e-06
smoothSolver:  Solving for omega, Initial residual = 0.0132422, Final residual = 0.000129739, No Iterations 1
smoothSolver:  Solving for k, Initial residual = 0.0141899, Final residual = 0.000138358, No Iterations 1
smoothSolver:  Solving for ReThetat, Initial residual = 0.0183265, Final residual = 7.43802e-09, No Iterations 1
smoothSolver:  Solving for gammaInt, Initial residual = 0.0640796, Final residual = 0.0580546, No Iterations 100
ExecutionTime = 141.66 s  ClockTime = 142 s

forceCoeffs forceCoeffs write:
    Coefficient	Total	Pressure	Viscous	Internal
    Cd:	0	0	0	0
    Cd(f):	0	0	0	0
    Cd(r):	0	0	0	0
    Cl:	0	0	0	0
    Cl(f):	0	0	0	0
    Cl(r):	0	0	0	0
    CmPitch:	0	0	0	0
    CmRoll:	0	0	0	0
    CmYaw:	0	0	0	0
    Cs:	0	0	0	0
    Cs(f):	0	0	0	0
    Cs(r):	0	0	0	0

    writing force and moment coefficient files.

yPlus yPlus write:
    writing field yPlus
    patch sfera1 y+ : min = 438.822, max = 17720, average = 6795.62
    patch sfera2 y+ : min = 334.248, max = 17723.7, average = 6795.58
Time = 4

smoothSolver:  Solving for Ux, Initial residual = 0.00422282, Final residual = 5.03909e-05, No Iterations 1
smoothSolver:  Solving for Uy, Initial residual = 0.00240464, Final residual = 2.88683e-05, No Iterations 1
smoothSolver:  Solving for Uz, Initial residual = 0.00422365, Final residual = 5.03174e-05, No Iterations 1
GAMG:  Solving for p, Initial residual = 0.0392181, Final residual = 0.00267384, No Iterations 2
time step continuity errors : sum local = 2.81153e-06, global = -8.96064e-08, cumulative = 6.01089e-06
smoothSolver:  Solving for omega, Initial residual = 0.0128386, Final residual = 0.000126049, No Iterations 1
smoothSolver:  Solving for k, Initial residual = 0.0137437, Final residual = 0.000134282, No Iterations 1
smoothSolver:  Solving for ReThetat, Initial residual = 0.0177445, Final residual = 7.23887e-09, No Iterations 1
smoothSolver:  Solving for gammaInt, Initial residual = 0.0630043, Final residual = 0.0568476, No Iterations 100
ExecutionTime = 145.09 s  ClockTime = 146 s

forceCoeffs forceCoeffs write:
    Coefficient	Total	Pressure	Viscous	Internal
    Cd:	0	0	0	0
    Cd(f):	0	0	0	0
    Cd(r):	0	0	0	0
    Cl:	0	0	0	0
    Cl(f):	0	0	0	0
    Cl(r):	0	0	0	0
    CmPitch:	0	0	0	0
    CmRoll:	0	0	0	0
    CmYaw:	0	0	0	0
    Cs:	0	0	0	0
    Cs(f):	0	0	0	0
    Cs(r):	0	0	0	0

    writing force and moment coefficient files.

yPlus yPlus write:
    writing field yPlus
    patch sfera1 y+ : min = 341.307, max = 17723.1, average = 6774.85
    patch sfera2 y+ : min = 458.436, max = 17726.7, average = 6776.49
Time = 4.1

smoothSolver:  Solving for Ux, Initial residual = 0.00401388, Final residual = 4.77951e-05, No Iterations 1
smoothSolver:  Solving for Uy, Initial residual = 0.00238239, Final residual = 2.86972e-05, No Iterations 1
smoothSolver:  Solving for Uz, Initial residual = 0.00412571, Final residual = 4.94105e-05, No Iterations 1
GAMG:  Solving for p, Initial residual = 0.0386895, Final residual = 0.00253834, No Iterations 2
time step continuity errors : sum local = 2.5981e-06, global = -4.3856e-07, cumulative = 5.57233e-06
smoothSolver:  Solving for omega, Initial residual = 0.0124562, Final residual = 0.000122537, No Iterations 1
smoothSolver:  Solving for k, Initial residual = 0.0133195, Final residual = 0.000130402, No Iterations 1
smoothSolver:  Solving for ReThetat, Initial residual = 0.0171969, Final residual = 7.05045e-09, No Iterations 1
smoothSolver:  Solving for gammaInt, Initial residual = 0.0623432, Final residual = 0.0563499, No Iterations 100
ExecutionTime = 148.77 s  ClockTime = 149 s

forceCoeffs forceCoeffs write:
    Coefficient	Total	Pressure	Viscous	Internal
    Cd:	0	0	0	0
    Cd(f):	0	0	0	0
    Cd(r):	0	0	0	0
    Cl:	0	0	0	0
    Cl(f):	0	0	0	0
    Cl(r):	0	0	0	0
    CmPitch:	0	0	0	0
    CmRoll:	0	0	0	0
    CmYaw:	0	0	0	0
    Cs:	0	0	0	0
    Cs(f):	0	0	0	0
    Cs(r):	0	0	0	0

    writing force and moment coefficient files.

yPlus yPlus write:
    writing field yPlus
    patch sfera1 y+ : min = 420.391, max = 17726.4, average = 6756.34
    patch sfera2 y+ : min = 462.141, max = 17729.9, average = 6758.43
Time = 4.2

smoothSolver:  Solving for Ux, Initial residual = 0.00392043, Final residual = 4.66635e-05, No Iterations 1
smoothSolver:  Solving for Uy, Initial residual = 0.00236258, Final residual = 2.85194e-05, No Iterations 1
smoothSolver:  Solving for Uz, Initial residual = 0.00403107, Final residual = 4.84341e-05, No Iterations 1
GAMG:  Solving for p, Initial residual = 0.0389499, Final residual = 0.00248486, No Iterations 2
time step continuity errors : sum local = 2.37884e-06, global = -5.82614e-07, cumulative = 4.98972e-06
smoothSolver:  Solving for omega, Initial residual = 0.0120899, Final residual = 0.000119164, No Iterations 1
smoothSolver:  Solving for k, Initial residual = 0.0129084, Final residual = 0.000126648, No Iterations 1
smoothSolver:  Solving for ReThetat, Initial residual = 0.01668, Final residual = 6.87218e-09, No Iterations 1
smoothSolver:  Solving for gammaInt, Initial residual = 0.0610653, Final residual = 0.0558178, No Iterations 100
ExecutionTime = 152.3 s  ClockTime = 153 s

forceCoeffs forceCoeffs write:
    Coefficient	Total	Pressure	Viscous	Internal
    Cd:	0	0	0	0
    Cd(f):	0	0	0	0
    Cd(r):	0	0	0	0
    Cl:	0	0	0	0
    Cl(f):	0	0	0	0
    Cl(r):	0	0	0	0
    CmPitch:	0	0	0	0
    CmRoll:	0	0	0	0
    CmYaw:	0	0	0	0
    Cs:	0	0	0	0
    Cs(f):	0	0	0	0
    Cs(r):	0	0	0	0

    writing force and moment coefficient files.

yPlus yPlus write:
    writing field yPlus
    patch sfera1 y+ : min = 463.828, max = 17730.5, average = 6738.5
    patch sfera2 y+ : min = 455.54, max = 17733.8, average = 6740.25
Time = 4.3

smoothSolver:  Solving for Ux, Initial residual = 0.00390438, Final residual = 4.64974e-05, No Iterations 1
smoothSolver:  Solving for Uy, Initial residual = 0.00234518, Final residual = 2.83141e-05, No Iterations 1
smoothSolver:  Solving for Uz, Initial residual = 0.00394723, Final residual = 4.75035e-05, No Iterations 1
GAMG:  Solving for p, Initial residual = 0.0407882, Final residual = 0.00252111, No Iterations 2
time step continuity errors : sum local = 2.19553e-06, global = -4.94971e-07, cumulative = 4.49475e-06
smoothSolver:  Solving for omega, Initial residual = 0.0117433, Final residual = 0.000115961, No Iterations 1
smoothSolver:  Solving for k, Initial residual = 0.012521, Final residual = 0.000123104, No Iterations 1
smoothSolver:  Solving for ReThetat, Initial residual = 0.0161921, Final residual = 6.70387e-09, No Iterations 1
smoothSolver:  Solving for gammaInt, Initial residual = 0.0605401, Final residual = 0.0548325, No Iterations 100
ExecutionTime = 155.94 s  ClockTime = 157 s

forceCoeffs forceCoeffs write:
    Coefficient	Total	Pressure	Viscous	Internal
    Cd:	0	0	0	0
    Cd(f):	0	0	0	0
    Cd(r):	0	0	0	0
    Cl:	0	0	0	0
    Cl(f):	0	0	0	0
    Cl(r):	0	0	0	0
    CmPitch:	0	0	0	0
    CmRoll:	0	0	0	0
    CmYaw:	0	0	0	0
    Cs:	0	0	0	0
    Cs(f):	0	0	0	0
    Cs(r):	0	0	0	0

    writing force and moment coefficient files.

yPlus yPlus write:
    writing field yPlus
    patch sfera1 y+ : min = 459.542, max = 17735.3, average = 6720.92
    patch sfera2 y+ : min = 452.213, max = 17738.5, average = 6722.13
Time = 4.4

smoothSolver:  Solving for Ux, Initial residual = 0.00394935, Final residual = 4.71451e-05, No Iterations 1
smoothSolver:  Solving for Uy, Initial residual = 0.00231389, Final residual = 2.78993e-05, No Iterations 1
smoothSolver:  Solving for Uz, Initial residual = 0.00390046, Final residual = 4.69869e-05, No Iterations 1
GAMG:  Solving for p, Initial residual = 0.043477, Final residual = 0.00248419, No Iterations 2
time step continuity errors : sum local = 1.94699e-06, global = -3.38959e-07, cumulative = 4.15579e-06
smoothSolver:  Solving for omega, Initial residual = 0.0114118, Final residual = 0.000112882, No Iterations 1
smoothSolver:  Solving for k, Initial residual = 0.0121571, Final residual = 0.000119737, No Iterations 1
smoothSolver:  Solving for ReThetat, Initial residual = 0.0157304, Final residual = 6.5451e-09, No Iterations 1
smoothSolver:  Solving for gammaInt, Initial residual = 0.0599203, Final residual = 0.0542395, No Iterations 100
ExecutionTime = 159.63 s  ClockTime = 160 s

forceCoeffs forceCoeffs write:
    Coefficient	Total	Pressure	Viscous	Internal
    Cd:	0	0	0	0
    Cd(f):	0	0	0	0
    Cd(r):	0	0	0	0
    Cl:	0	0	0	0
    Cl(f):	0	0	0	0
    Cl(r):	0	0	0	0
    CmPitch:	0	0	0	0
    CmRoll:	0	0	0	0
    CmYaw:	0	0	0	0
    Cs:	0	0	0	0
    Cs(f):	0	0	0	0
    Cs(r):	0	0	0	0

    writing force and moment coefficient files.

yPlus yPlus write:
    writing field yPlus
    patch sfera1 y+ : min = 457.715, max = 17740.6, average = 6703.5
    patch sfera2 y+ : min = 354.645, max = 17743.8, average = 6704.33
Time = 4.5

smoothSolver:  Solving for Ux, Initial residual = 0.00403665, Final residual = 4.81788e-05, No Iterations 1
smoothSolver:  Solving for Uy, Initial residual = 0.00227232, Final residual = 2.737e-05, No Iterations 1
smoothSolver:  Solving for Uz, Initial residual = 0.00388775, Final residual = 4.67278e-05, No Iterations 1
GAMG:  Solving for p, Initial residual = 0.0453342, Final residual = 0.00258256, No Iterations 2
time step continuity errors : sum local = 1.85725e-06, global = -1.81491e-07, cumulative = 3.9743e-06
smoothSolver:  Solving for omega, Initial residual = 0.0110944, Final residual = 0.000109914, No Iterations 1
smoothSolver:  Solving for k, Initial residual = 0.0118108, Final residual = 0.000116519, No Iterations 1
smoothSolver:  Solving for ReThetat, Initial residual = 0.0152925, Final residual = 6.39457e-09, No Iterations 1
smoothSolver:  Solving for gammaInt, Initial residual = 0.059467, Final residual = 0.0535891, No Iterations 100
ExecutionTime = 163.45 s  ClockTime = 164 s

forceCoeffs forceCoeffs write:
    Coefficient	Total	Pressure	Viscous	Internal
    Cd:	0	0	0	0
    Cd(f):	0	0	0	0
    Cd(r):	0	0	0	0
    Cl:	0	0	0	0
    Cl(f):	0	0	0	0
    Cl(r):	0	0	0	0
    CmPitch:	0	0	0	0
    CmRoll:	0	0	0	0
    CmYaw:	0	0	0	0
    Cs:	0	0	0	0
    Cs(f):	0	0	0	0
    Cs(r):	0	0	0	0

    writing force and moment coefficient files.

yPlus yPlus write:
    writing field yPlus
    patch sfera1 y+ : min = 370.454, max = 17746.2, average = 6686.45
    patch sfera2 y+ : min = 318.486, max = 17749.3, average = 6687.76
Time = 4.6

smoothSolver:  Solving for Ux, Initial residual = 0.00410303, Final residual = 4.89564e-05, No Iterations 1
smoothSolver:  Solving for Uy, Initial residual = 0.00223412, Final residual = 2.68399e-05, No Iterations 1
smoothSolver:  Solving for Uz, Initial residual = 0.00388774, Final residual = 4.65859e-05, No Iterations 1
GAMG:  Solving for p, Initial residual = 0.0451098, Final residual = 0.00254764, No Iterations 2
time step continuity errors : sum local = 1.7572e-06, global = 1.21525e-08, cumulative = 3.98645e-06
smoothSolver:  Solving for omega, Initial residual = 0.0107919, Final residual = 0.000107099, No Iterations 1
smoothSolver:  Solving for k, Initial residual = 0.011481, Final residual = 0.000113442, No Iterations 1
smoothSolver:  Solving for ReThetat, Initial residual = 0.0148768, Final residual = 6.25177e-09, No Iterations 1
smoothSolver:  Solving for gammaInt, Initial residual = 0.0587528, Final residual = 0.0528091, No Iterations 100
ExecutionTime = 167.03 s  ClockTime = 168 s

forceCoeffs forceCoeffs write:
    Coefficient	Total	Pressure	Viscous	Internal
    Cd:	0	0	0	0
    Cd(f):	0	0	0	0
    Cd(r):	0	0	0	0
    Cl:	0	0	0	0
    Cl(f):	0	0	0	0
    Cl(r):	0	0	0	0
    CmPitch:	0	0	0	0
    CmRoll:	0	0	0	0
    CmYaw:	0	0	0	0
    Cs:	0	0	0	0
    Cs(f):	0	0	0	0
    Cs(r):	0	0	0	0

    writing force and moment coefficient files.

yPlus yPlus write:
    writing field yPlus
    patch sfera1 y+ : min = 392.143, max = 17751.6, average = 6670.71
    patch sfera2 y+ : min = 453.144, max = 17754.7, average = 6672.65
Time = 4.7

smoothSolver:  Solving for Ux, Initial residual = 0.00413338, Final residual = 4.93401e-05, No Iterations 1
smoothSolver:  Solving for Uy, Initial residual = 0.00221997, Final residual = 2.65763e-05, No Iterations 1
smoothSolver:  Solving for Uz, Initial residual = 0.00389296, Final residual = 4.65646e-05, No Iterations 1
GAMG:  Solving for p, Initial residual = 0.0430978, Final residual = 0.00228366, No Iterations 2
time step continuity errors : sum local = 1.58237e-06, global = 2.60325e-07, cumulative = 4.24677e-06
smoothSolver:  Solving for omega, Initial residual = 0.0105061, Final residual = 0.000104425, No Iterations 1
smoothSolver:  Solving for k, Initial residual = 0.0111651, Final residual = 0.000110494, No Iterations 1
smoothSolver:  Solving for ReThetat, Initial residual = 0.0144819, Final residual = 6.11624e-09, No Iterations 1
smoothSolver:  Solving for gammaInt, Initial residual = 0.0581654, Final residual = 0.0526595, No Iterations 100
ExecutionTime = 170.93 s  ClockTime = 172 s

forceCoeffs forceCoeffs write:
    Coefficient	Total	Pressure	Viscous	Internal
    Cd:	0	0	0	0
    Cd(f):	0	0	0	0
    Cd(r):	0	0	0	0
    Cl:	0	0	0	0
    Cl(f):	0	0	0	0
    Cl(r):	0	0	0	0
    CmPitch:	0	0	0	0
    CmRoll:	0	0	0	0
    CmYaw:	0	0	0	0
    Cs:	0	0	0	0
    Cs(f):	0	0	0	0
    Cs(r):	0	0	0	0

    writing force and moment coefficient files.

yPlus yPlus write:
    writing field yPlus
    patch sfera1 y+ : min = 461.369, max = 17756.4, average = 6656.18
    patch sfera2 y+ : min = 455.533, max = 17759.6, average = 6658.19
Time = 4.8

smoothSolver:  Solving for Ux, Initial residual = 0.00413949, Final residual = 4.94358e-05, No Iterations 1
smoothSolver:  Solving for Uy, Initial residual = 0.00221427, Final residual = 2.64405e-05, No Iterations 1
smoothSolver:  Solving for Uz, Initial residual = 0.00390464, Final residual = 4.66139e-05, No Iterations 1
GAMG:  Solving for p, Initial residual = 0.0404071, Final residual = 0.00199205, No Iterations 2
time step continuity errors : sum local = 1.43023e-06, global = 4.2332e-07, cumulative = 4.67009e-06
smoothSolver:  Solving for omega, Initial residual = 0.010233, Final residual = 0.000101841, No Iterations 1
smoothSolver:  Solving for k, Initial residual = 0.0108615, Final residual = 0.00010766, No Iterations 1
smoothSolver:  Solving for ReThetat, Initial residual = 0.014106, Final residual = 5.98721e-09, No Iterations 1
smoothSolver:  Solving for gammaInt, Initial residual = 0.0573863, Final residual = 0.0517897, No Iterations 100
ExecutionTime = 174.84 s  ClockTime = 176 s

forceCoeffs forceCoeffs write:
    Coefficient	Total	Pressure	Viscous	Internal
    Cd:	0	0	0	0
    Cd(f):	0	0	0	0
    Cd(r):	0	0	0	0
    Cl:	0	0	0	0
    Cl(f):	0	0	0	0
    Cl(r):	0	0	0	0
    CmPitch:	0	0	0	0
    CmRoll:	0	0	0	0
    CmYaw:	0	0	0	0
    Cs:	0	0	0	0
    Cs(f):	0	0	0	0
    Cs(r):	0	0	0	0

    writing force and moment coefficient files.

yPlus yPlus write:
    writing field yPlus
    patch sfera1 y+ : min = 464.713, max = 17760.5, average = 6642.12
    patch sfera2 y+ : min = 458.768, max = 17763.7, average = 6644.2
Time = 4.9

smoothSolver:  Solving for Ux, Initial residual = 0.00410656, Final residual = 4.89638e-05, No Iterations 1
smoothSolver:  Solving for Uy, Initial residual = 0.00220402, Final residual = 2.62483e-05, No Iterations 1
smoothSolver:  Solving for Uz, Initial residual = 0.0038951, Final residual = 4.63288e-05, No Iterations 1
GAMG:  Solving for p, Initial residual = 0.0369872, Final residual = 0.00177268, No Iterations 2
time step continuity errors : sum local = 1.34409e-06, global = 4.52993e-07, cumulative = 5.12309e-06
smoothSolver:  Solving for omega, Initial residual = 0.00996958, Final residual = 9.9351e-05, No Iterations 1
smoothSolver:  Solving for k, Initial residual = 0.0105753, Final residual = 0.00010497, No Iterations 1
smoothSolver:  Solving for ReThetat, Initial residual = 0.0137467, Final residual = 5.86393e-09, No Iterations 1
smoothSolver:  Solving for gammaInt, Initial residual = 0.0571522, Final residual = 0.0514096, No Iterations 100
ExecutionTime = 178.65 s  ClockTime = 179 s

forceCoeffs forceCoeffs write:
    Coefficient	Total	Pressure	Viscous	Internal
    Cd:	0	0	0	0
    Cd(f):	0	0	0	0
    Cd(r):	0	0	0	0
    Cl:	0	0	0	0
    Cl(f):	0	0	0	0
    Cl(r):	0	0	0	0
    CmPitch:	0	0	0	0
    CmRoll:	0	0	0	0
    CmYaw:	0	0	0	0
    Cs:	0	0	0	0
    Cs(f):	0	0	0	0
    Cs(r):	0	0	0	0

    writing force and moment coefficient files.

yPlus yPlus write:
    writing field yPlus
    patch sfera1 y+ : min = 468.859, max = 17763.6, average = 6628.17
    patch sfera2 y+ : min = 462.828, max = 17766.8, average = 6630.23
Time = 5

smoothSolver:  Solving for Ux, Initial residual = 0.0040136, Final residual = 4.77873e-05, No Iterations 1
smoothSolver:  Solving for Uy, Initial residual = 0.00219287, Final residual = 2.60593e-05, No Iterations 1
smoothSolver:  Solving for Uz, Initial residual = 0.00383692, Final residual = 4.54962e-05, No Iterations 1
GAMG:  Solving for p, Initial residual = 0.0338546, Final residual = 0.00158856, No Iterations 2
time step continuity errors : sum local = 1.28011e-06, global = 4.25581e-07, cumulative = 5.54867e-06
[...]
smoothSolver:  Solving for k, Initial residual = 0.000833929, Final residual = 9.67171e-06, No Iterations 1
bounding k, min: -0.211944 max: 194.894 average: 1.7004
--> FOAM Warning : 
    From Foam::tmp<Foam::DimensionedField<double, Foam::volMesh> > Foam::RASModels::kOmegaSSTLM<BasicTurbulenceModel>::ReThetat0(const Internal&, const Internal&, const Internal&) const [with BasicTurbulenceModel = Foam::IncompressibleTurbulenceModel<Foam::transportModel>; Foam::GeometricField<double, Foam::fvPatchField, Foam::volMesh>::Internal = Foam::DimensionedField<double, Foam::volMesh>]
    in file ../turbulenceModels/lnInclude/kOmegaSSTLM.C at line 326
    Number of lambda iterations exceeds maxLambdaIter(10)
smoothSolver:  Solving for ReThetat, Initial residual = 0.000516188, Final residual = 9.62519e-10, No Iterations 1
smoothSolver:  Solving for gammaInt, Initial residual = 0.0225361, Final residual = 8.74916e-05, No Iterations 1
ExecutionTime = 1010.61 s  ClockTime = 1017 s

forceCoeffs forceCoeffs write:
    Coefficient	Total	Pressure	Viscous	Internal
    Cd:	0	0	0	0
    Cd(f):	0	0	0	0
    Cd(r):	0	0	0	0
    Cl:	0	0	0	0
    Cl(f):	0	0	0	0
    Cl(r):	0	0	0	0
    CmPitch:	0	0	0	0
    CmRoll:	0	0	0	0
    CmYaw:	0	0	0	0
    Cs:	0	0	0	0
    Cs(f):	0	0	0	0
    Cs(r):	0	0	0	0

    writing force and moment coefficient files.

yPlus yPlus write:
    writing field yPlus
    patch sfera1 y+ : min = 208.58, max = 16541.1, average = 5408.47
    patch sfera2 y+ : min = 214.199, max = 16545.2, average = 5411.17
Time = 29.2

smoothSolver:  Solving for Ux, Initial residual = 0.00204983, Final residual = 2.56782e-05, No Iterations 1
smoothSolver:  Solving for Uy, Initial residual = 0.000883285, Final residual = 1.1019e-05, No Iterations 1
smoothSolver:  Solving for Uz, Initial residual = 0.00183703, Final residual = 2.26763e-05, No Iterations 1
GAMG:  Solving for p, Initial residual = 0.00602558, Final residual = 0.00018339, No Iterations 2
time step continuity errors : sum local = 2.42596e-07, global = -7.35627e-09, cumulative = 1.08632e-05
smoothSolver:  Solving for omega, Initial residual = 0.000703738, Final residual = 8.23558e-06, No Iterations 1
smoothSolver:  Solving for k, Initial residual = 0.00082987, Final residual = 9.61498e-06, No Iterations 1
bounding k, min: -0.18572 max: 195.17 average: 1.70407
--> FOAM Warning : 
    From Foam::tmp<Foam::DimensionedField<double, Foam::volMesh> > Foam::RASModels::kOmegaSSTLM<BasicTurbulenceModel>::ReThetat0(const Internal&, const Internal&, const Internal&) const [with BasicTurbulenceModel = Foam::IncompressibleTurbulenceModel<Foam::transportModel>; Foam::GeometricField<double, Foam::fvPatchField, Foam::volMesh>::Internal = Foam::DimensionedField<double, Foam::volMesh>]
    in file ../turbulenceModels/lnInclude/kOmegaSSTLM.C at line 326
    Number of lambda iterations exceeds maxLambdaIter(10)
smoothSolver:  Solving for ReThetat, Initial residual = 0.000512647, Final residual = 9.66302e-10, No Iterations 1
smoothSolver:  Solving for gammaInt, Initial residual = 0.0209968, Final residual = 7.61894e-05, No Iterations 1
ExecutionTime = 1014.68 s  ClockTime = 1021 s

forceCoeffs forceCoeffs write:
    Coefficient	Total	Pressure	Viscous	Internal
    Cd:	0	0	0	0
    Cd(f):	0	0	0	0
    Cd(r):	0	0	0	0
    Cl:	0	0	0	0
    Cl(f):	0	0	0	0
    Cl(r):	0	0	0	0
    CmPitch:	0	0	0	0
    CmRoll:	0	0	0	0
    CmYaw:	0	0	0	0
    Cs:	0	0	0	0
    Cs(f):	0	0	0	0
    Cs(r):	0	0	0	0

    writing force and moment coefficient files.

yPlus yPlus write:
    writing field yPlus
    patch sfera1 y+ : min = 209.392, max = 16542.9, average = 5408.42
    patch sfera2 y+ : min = 215.094, max = 16546.9, average = 5411.09
Time = 29.3

smoothSolver:  Solving for Ux, Initial residual = 0.00205281, Final residual = 2.57238e-05, No Iterations 1
smoothSolver:  Solving for Uy, Initial residual = 0.000881337, Final residual = 1.09914e-05, No Iterations 1
smoothSolver:  Solving for Uz, Initial residual = 0.0018389, Final residual = 2.26848e-05, No Iterations 1
GAMG:  Solving for p, Initial residual = 0.00599056, Final residual = 0.00059024, No Iterations 1
time step continuity errors : sum local = 7.81418e-07, global = -5.70624e-10, cumulative = 1.08627e-05
smoothSolver:  Solving for omega, Initial residual = 0.000699469, Final residual = 8.18301e-06, No Iterations 1
smoothSolver:  Solving for k, Initial residual = 0.000827935, Final residual = 9.58323e-06, No Iterations 1
bounding k, min: -0.274103 max: 195.422 average: 1.70779
--> FOAM Warning : 
    From Foam::tmp<Foam::DimensionedField<double, Foam::volMesh> > Foam::RASModels::kOmegaSSTLM<BasicTurbulenceModel>::ReThetat0(const Internal&, const Internal&, const Internal&) const [with BasicTurbulenceModel = Foam::IncompressibleTurbulenceModel<Foam::transportModel>; Foam::GeometricField<double, Foam::fvPatchField, Foam::volMesh>::Internal = Foam::DimensionedField<double, Foam::volMesh>]
    in file ../turbulenceModels/lnInclude/kOmegaSSTLM.C at line 326
    Number of lambda iterations exceeds maxLambdaIter(10)
smoothSolver:  Solving for ReThetat, Initial residual = 0.000508768, Final residual = 9.51409e-10, No Iterations 1
smoothSolver:  Solving for gammaInt, Initial residual = 0.0330079, Final residual = 9.01373e-05, No Iterations 1
ExecutionTime = 1018.52 s  ClockTime = 1025 s

forceCoeffs forceCoeffs write:
    Coefficient	Total	Pressure	Viscous	Internal
    Cd:	0	0	0	0
    Cd(f):	0	0	0	0
    Cd(r):	0	0	0	0
    Cl:	0	0	0	0
    Cl(f):	0	0	0	0
    Cl(r):	0	0	0	0
    CmPitch:	0	0	0	0
    CmRoll:	0	0	0	0
    CmYaw:	0	0	0	0
    Cs:	0	0	0	0
    Cs(f):	0	0	0	0
    Cs(r):	0	0	0	0

    writing force and moment coefficient files.

yPlus yPlus write:
    writing field yPlus
    patch sfera1 y+ : min = 210.19, max = 16544.6, average = 5408.39
    patch sfera2 y+ : min = 215.969, max = 16548.6, average = 5411.04
Time = 29.4

smoothSolver:  Solving for Ux, Initial residual = 0.00205316, Final residual = 2.57449e-05, No Iterations 1
smoothSolver:  Solving for Uy, Initial residual = 0.000879504, Final residual = 1.09655e-05, No Iterations 1
smoothSolver:  Solving for Uz, Initial residual = 0.00183921, Final residual = 2.26733e-05, No Iterations 1
GAMG:  Solving for p, Initial residual = 0.00605714, Final residual = 0.000190872, No Iterations 2
time step continuity errors : sum local = 2.52852e-07, global = -8.61165e-09, cumulative = 1.0854e-05
smoothSolver:  Solving for omega, Initial residual = 0.000695456, Final residual = 8.13459e-06, No Iterations 1
smoothSolver:  Solving for k, Initial residual = 0.000823021, Final residual = 9.53963e-06, No Iterations 1
bounding k, min: -0.177939 max: 195.648 average: 1.71143
--> FOAM Warning : 
    From Foam::tmp<Foam::DimensionedField<double, Foam::volMesh> > Foam::RASModels::kOmegaSSTLM<BasicTurbulenceModel>::ReThetat0(const Internal&, const Internal&, const Internal&) const [with BasicTurbulenceModel = Foam::IncompressibleTurbulenceModel<Foam::transportModel>; Foam::GeometricField<double, Foam::fvPatchField, Foam::volMesh>::Internal = Foam::DimensionedField<double, Foam::volMesh>]
    in file ../turbulenceModels/lnInclude/kOmegaSSTLM.C at line 326
    Number of lambda iterations exceeds maxLambdaIter(10)
smoothSolver:  Solving for ReThetat, Initial residual = 0.000504988, Final residual = 9.41245e-10, No Iterations 1
smoothSolver:  Solving for gammaInt, Initial residual = 0.0224545, Final residual = 8.86933e-05, No Iterations 1
ExecutionTime = 1022.74 s  ClockTime = 1029 s

forceCoeffs forceCoeffs write:
    Coefficient	Total	Pressure	Viscous	Internal
    Cd:	0	0	0	0
    Cd(f):	0	0	0	0
    Cd(r):	0	0	0	0
    Cl:	0	0	0	0
    Cl(f):	0	0	0	0
    Cl(r):	0	0	0	0
    CmPitch:	0	0	0	0
    CmRoll:	0	0	0	0
    CmYaw:	0	0	0	0
    Cs:	0	0	0	0
    Cs(f):	0	0	0	0
    Cs(r):	0	0	0	0

    writing force and moment coefficient files.

yPlus yPlus write:
    writing field yPlus
    patch sfera1 y+ : min = 210.999, max = 16546.3, average = 5408.39
    patch sfera2 y+ : min = 216.848, max = 16550.3, average = 5411
Time = 29.5

smoothSolver:  Solving for Ux, Initial residual = 0.00205661, Final residual = 2.57941e-05, No Iterations 1
smoothSolver:  Solving for Uy, Initial residual = 0.000877772, Final residual = 1.09425e-05, No Iterations 1
smoothSolver:  Solving for Uz, Initial residual = 0.00184114, Final residual = 2.26766e-05, No Iterations 1
GAMG:  Solving for p, Initial residual = 0.00603554, Final residual = 0.000184435, No Iterations 2
time step continuity errors : sum local = 2.4451e-07, global = -8.96857e-09, cumulative = 1.08451e-05
smoothSolver:  Solving for omega, Initial residual = 0.000691342, Final residual = 8.08635e-06, No Iterations 1
smoothSolver:  Solving for k, Initial residual = 0.000819167, Final residual = 9.45588e-06, No Iterations 1
bounding k, min: -0.257506 max: 195.85 average: 1.7151
--> FOAM Warning : 
    From Foam::tmp<Foam::DimensionedField<double, Foam::volMesh> > Foam::RASModels::kOmegaSSTLM<BasicTurbulenceModel>::ReThetat0(const Internal&, const Internal&, const Internal&) const [with BasicTurbulenceModel = Foam::IncompressibleTurbulenceModel<Foam::transportModel>; Foam::GeometricField<double, Foam::fvPatchField, Foam::volMesh>::Internal = Foam::DimensionedField<double, Foam::volMesh>]
    in file ../turbulenceModels/lnInclude/kOmegaSSTLM.C at line 326
    Number of lambda iterations exceeds maxLambdaIter(10)
smoothSolver:  Solving for ReThetat, Initial residual = 0.000500084, Final residual = 9.26961e-10, No Iterations 1
smoothSolver:  Solving for gammaInt, Initial residual = 0.0222512, Final residual = 8.93631e-05, No Iterations 1
ExecutionTime = 1026.95 s  ClockTime = 1033 s

forceCoeffs forceCoeffs write:
    Coefficient	Total	Pressure	Viscous	Internal
    Cd:	0	0	0	0
    Cd(f):	0	0	0	0
    Cd(r):	0	0	0	0
    Cl:	0	0	0	0
    Cl(f):	0	0	0	0
    Cl(r):	0	0	0	0
    CmPitch:	0	0	0	0
    CmRoll:	0	0	0	0
    CmYaw:	0	0	0	0
    Cs:	0	0	0	0
    Cs(f):	0	0	0	0
    Cs(r):	0	0	0	0

    writing force and moment coefficient files.

yPlus yPlus write:
    writing field yPlus
    patch sfera1 y+ : min = 211.94, max = 16548.1, average = 5408.37
    patch sfera2 y+ : min = 217.867, max = 16552.1, average = 5410.96
Time = 29.6

smoothSolver:  Solving for Ux, Initial residual = 0.00205926, Final residual = 2.58335e-05, No Iterations 1
smoothSolver:  Solving for Uy, Initial residual = 0.000876009, Final residual = 1.09172e-05, No Iterations 1
smoothSolver:  Solving for Uz, Initial residual = 0.0018429, Final residual = 2.26692e-05, No Iterations 1
GAMG:  Solving for p, Initial residual = 0.00601253, Final residual = 0.000582561, No Iterations 1
time step continuity errors : sum local = 7.72851e-07, global = -2.63881e-09, cumulative = 1.08424e-05
smoothSolver:  Solving for omega, Initial residual = 0.000687438, Final residual = 8.04133e-06, No Iterations 1
smoothSolver:  Solving for k, Initial residual = 0.000814991, Final residual = 9.42285e-06, No Iterations 1
bounding k, min: -0.318837 max: 196.026 average: 1.71874
--> FOAM Warning : 
    From Foam::tmp<Foam::DimensionedField<double, Foam::volMesh> > Foam::RASModels::kOmegaSSTLM<BasicTurbulenceModel>::ReThetat0(const Internal&, const Internal&, const Internal&) const [with BasicTurbulenceModel = Foam::IncompressibleTurbulenceModel<Foam::transportModel>; Foam::GeometricField<double, Foam::fvPatchField, Foam::volMesh>::Internal = Foam::DimensionedField<double, Foam::volMesh>]
    in file ../turbulenceModels/lnInclude/kOmegaSSTLM.C at line 326
    Number of lambda iterations exceeds maxLambdaIter(10)
smoothSolver:  Solving for ReThetat, Initial residual = 0.000496801, Final residual = 9.22909e-10, No Iterations 1
smoothSolver:  Solving for gammaInt, Initial residual = 0.0404544, Final residual = 8.12961e-05, No Iterations 1
ExecutionTime = 1030.93 s  ClockTime = 1037 s

forceCoeffs forceCoeffs write:
    Coefficient	Total	Pressure	Viscous	Internal
    Cd:	0	0	0	0
    Cd(f):	0	0	0	0
    Cd(r):	0	0	0	0
    Cl:	0	0	0	0
    Cl(f):	0	0	0	0
    Cl(r):	0	0	0	0
    CmPitch:	0	0	0	0
    CmRoll:	0	0	0	0
    CmYaw:	0	0	0	0
    Cs:	0	0	0	0
    Cs(f):	0	0	0	0
    Cs(r):	0	0	0	0

    writing force and moment coefficient files.

yPlus yPlus write:
    writing field yPlus
    patch sfera1 y+ : min = 212.849, max = 16549.9, average = 5408.39
    patch sfera2 y+ : min = 218.853, max = 16553.8, average = 5410.96
Time = 29.7

smoothSolver:  Solving for Ux, Initial residual = 0.00205963, Final residual = 2.58341e-05, No Iterations 1
smoothSolver:  Solving for Uy, Initial residual = 0.000874012, Final residual = 1.0888e-05, No Iterations 1
smoothSolver:  Solving for Uz, Initial residual = 0.00184343, Final residual = 2.26511e-05, No Iterations 1
GAMG:  Solving for p, Initial residual = 0.00608887, Final residual = 0.000195177, No Iterations 2
time step continuity errors : sum local = 2.59078e-07, global = -1.00784e-08, cumulative = 1.08324e-05
smoothSolver:  Solving for omega, Initial residual = 0.000683387, Final residual = 7.99423e-06, No Iterations 1
smoothSolver:  Solving for k, Initial residual = 0.000811581, Final residual = 9.36326e-06, No Iterations 1
bounding k, min: -0.104075 max: 196.179 average: 1.72238
--> FOAM Warning : 
    From Foam::tmp<Foam::DimensionedField<double, Foam::volMesh> > Foam::RASModels::kOmegaSSTLM<BasicTurbulenceModel>::ReThetat0(const Internal&, const Internal&, const Internal&) const [with BasicTurbulenceModel = Foam::IncompressibleTurbulenceModel<Foam::transportModel>; Foam::GeometricField<double, Foam::fvPatchField, Foam::volMesh>::Internal = Foam::DimensionedField<double, Foam::volMesh>]
    in file ../turbulenceModels/lnInclude/kOmegaSSTLM.C at line 326
    Number of lambda iterations exceeds maxLambdaIter(10)
smoothSolver:  Solving for ReThetat, Initial residual = 0.000493994, Final residual = 9.31208e-10, No Iterations 1
smoothSolver:  Solving for gammaInt, Initial residual = 0.0263039, Final residual = 6.43731e-05, No Iterations 1
ExecutionTime = 1035.21 s  ClockTime = 1041 s

forceCoeffs forceCoeffs write:
    Coefficient	Total	Pressure	Viscous	Internal
    Cd:	0	0	0	0
    Cd(f):	0	0	0	0
    Cd(r):	0	0	0	0
    Cl:	0	0	0	0
    Cl(f):	0	0	0	0
    Cl(r):	0	0	0	0
    CmPitch:	0	0	0	0
    CmRoll:	0	0	0	0
    CmYaw:	0	0	0	0
    Cs:	0	0	0	0
    Cs(f):	0	0	0	0
    Cs(r):	0	0	0	0

    writing force and moment coefficient files.

yPlus yPlus write:
    writing field yPlus
    patch sfera1 y+ : min = 213.773, max = 16551.7, average = 5408.41
    patch sfera2 y+ : min = 219.848, max = 16555.6, average = 5410.97
Time = 29.8

smoothSolver:  Solving for Ux, Initial residual = 0.00206226, Final residual = 2.58661e-05, No Iterations 1
smoothSolver:  Solving for Uy, Initial residual = 0.000872319, Final residual = 1.08598e-05, No Iterations 1
smoothSolver:  Solving for Uz, Initial residual = 0.00184465, Final residual = 2.26358e-05, No Iterations 1
GAMG:  Solving for p, Initial residual = 0.00607318, Final residual = 0.000190797, No Iterations 2
time step continuity errors : sum local = 2.53436e-07, global = -1.03102e-08, cumulative = 1.0822e-05
smoothSolver:  Solving for omega, Initial residual = 0.000679519, Final residual = 7.9527e-06, No Iterations 1
smoothSolver:  Solving for k, Initial residual = 0.000809304, Final residual = 9.3314e-06, No Iterations 1
bounding k, min: -0.238252 max: 196.307 average: 1.72605
--> FOAM Warning : 
    From Foam::tmp<Foam::DimensionedField<double, Foam::volMesh> > Foam::RASModels::kOmegaSSTLM<BasicTurbulenceModel>::ReThetat0(const Internal&, const Internal&, const Internal&) const [with BasicTurbulenceModel = Foam::IncompressibleTurbulenceModel<Foam::transportModel>; Foam::GeometricField<double, Foam::fvPatchField, Foam::volMesh>::Internal = Foam::DimensionedField<double, Foam::volMesh>]
    in file ../turbulenceModels/lnInclude/kOmegaSSTLM.C at line 326
    Number of lambda iterations exceeds maxLambdaIter(10)
smoothSolver:  Solving for ReThetat, Initial residual = 0.000490236, Final residual = 9.24757e-10, No Iterations 1
smoothSolver:  Solving for gammaInt, Initial residual = 0.0277168, Final residual = 6.75734e-05, No Iterations 1
ExecutionTime = 1039.35 s  ClockTime = 1046 s

forceCoeffs forceCoeffs write:
    Coefficient	Total	Pressure	Viscous	Internal
    Cd:	0	0	0	0
    Cd(f):	0	0	0	0
    Cd(r):	0	0	0	0
    Cl:	0	0	0	0
    Cl(f):	0	0	0	0
    Cl(r):	0	0	0	0
    CmPitch:	0	0	0	0
    CmRoll:	0	0	0	0
    CmYaw:	0	0	0	0
    Cs:	0	0	0	0
    Cs(f):	0	0	0	0
    Cs(r):	0	0	0	0

    writing force and moment coefficient files.

yPlus yPlus write:
    writing field yPlus
    patch sfera1 y+ : min = 214.808, max = 16553.5, average = 5408.43
    patch sfera2 y+ : min = 220.958, max = 16557.4, average = 5410.98
Time = 29.9

smoothSolver:  Solving for Ux, Initial residual = 0.00206499, Final residual = 2.5893e-05, No Iterations 1
smoothSolver:  Solving for Uy, Initial residual = 0.000870903, Final residual = 1.08346e-05, No Iterations 1
smoothSolver:  Solving for Uz, Initial residual = 0.00184577, Final residual = 2.26341e-05, No Iterations 1
GAMG:  Solving for p, Initial residual = 0.00604949, Final residual = 0.000594244, No Iterations 1
time step continuity errors : sum local = 7.89834e-07, global = -4.41423e-09, cumulative = 1.08176e-05
smoothSolver:  Solving for omega, Initial residual = 0.000675535, Final residual = 7.90657e-06, No Iterations 1
smoothSolver:  Solving for k, Initial residual = 0.00080488, Final residual = 9.29801e-06, No Iterations 1
bounding k, min: -0.0946541 max: 196.412 average: 1.72962
smoothSolver:  Solving for ReThetat, Initial residual = 0.000486188, Final residual = 9.13595e-10, No Iterations 1
smoothSolver:  Solving for gammaInt, Initial residual = 0.0275426, Final residual = 6.95123e-05, No Iterations 1
ExecutionTime = 1043.41 s  ClockTime = 1050 s

forceCoeffs forceCoeffs write:
    Coefficient	Total	Pressure	Viscous	Internal
    Cd:	0	0	0	0
    Cd(f):	0	0	0	0
    Cd(r):	0	0	0	0
    Cl:	0	0	0	0
    Cl(f):	0	0	0	0
    Cl(r):	0	0	0	0
    CmPitch:	0	0	0	0
    CmRoll:	0	0	0	0
    CmYaw:	0	0	0	0
    Cs:	0	0	0	0
    Cs(f):	0	0	0	0
    Cs(r):	0	0	0	0

    writing force and moment coefficient files.

yPlus yPlus write:
    writing field yPlus
    patch sfera1 y+ : min = 215.799, max = 16555.3, average = 5408.49
    patch sfera2 y+ : min = 222.022, max = 16559.2, average = 5411
Time = 30

smoothSolver:  Solving for Ux, Initial residual = 0.00206537, Final residual = 2.58826e-05, No Iterations 1
smoothSolver:  Solving for Uy, Initial residual = 0.000869182, Final residual = 1.0807e-05, No Iterations 1
smoothSolver:  Solving for Uz, Initial residual = 0.00184592, Final residual = 2.26483e-05, No Iterations 1
GAMG:  Solving for p, Initial residual = 0.0061226, Final residual = 0.000205438, No Iterations 2
time step continuity errors : sum local = 2.73211e-07, global = -1.11579e-08, cumulative = 1.08065e-05
smoothSolver:  Solving for omega, Initial residual = 0.000672098, Final residual = 7.85878e-06, No Iterations 1
smoothSolver:  Solving for k, Initial residual = 0.000801647, Final residual = 9.25977e-06, No Iterations 1
bounding k, min: -0.0659236 max: 196.493 average: 1.73319
smoothSolver:  Solving for ReThetat, Initial residual = 0.000482738, Final residual = 9.12976e-10, No Iterations 1
smoothSolver:  Solving for gammaInt, Initial residual = 0.0559137, Final residual = 0.000616647, No Iterations 1
ExecutionTime = 1047.54 s  ClockTime = 1054 s

forceCoeffs forceCoeffs write:
    Coefficient	Total	Pressure	Viscous	Internal
    Cd:	0	0	0	0
    Cd(f):	0	0	0	0
    Cd(r):	0	0	0	0
    Cl:	0	0	0	0
    Cl(f):	0	0	0	0
    Cl(r):	0	0	0	0
    CmPitch:	0	0	0	0
    CmRoll:	0	0	0	0
    CmYaw:	0	0	0	0
    Cs:	0	0	0	0
    Cs(f):	0	0	0	0
    Cs(r):	0	0	0	0

    writing force and moment coefficient files.

yPlus yPlus write:
    writing field yPlus
    patch sfera1 y+ : min = 216.81, max = 16557.1, average = 5408.55
    patch sfera2 y+ : min = 223.09, max = 16561, average = 5411.05
End

