/*---------------------------------------------------------------------------*\
| =========                 |                                                 |
| \\      /  F ield         | OpenFOAM: The Open Source CFD Toolbox           |
|  \\    /   O peration     | Version:  4.1                                   |
|   \\  /    A nd           | Web:      www.OpenFOAM.org                      |
|    \\/     M anipulation  |                                                 |
\*---------------------------------------------------------------------------*/
Build  : 4.1
Exec   : checkMesh
Date   : Oct 19 2017
Time   : 12:54:55
Host   : "ben-ubuntu1604"
PID    : 13404
Case   : /home/ben/OpenFOAM/ben-4.1/run/NASA-CRM/NASA-CRM-Wing
nProcs : 1
sigFpe : Enabling floating point exception trapping (FOAM_SIGFPE).
fileModificationChecking : Monitoring run-time modified files using timeStampMaster
allowSystemOperations : Allowing user-supplied system call operations

// * * * * * * * * * * * * * * * * * * * * * * * * * * * * * * * * * * * * * //
Create time

Create polyMesh for time = 0

Time = 0

Mesh stats
    points:           4454138
    faces:            11232096
    internal faces:   10551623
    cells:            3459764
    faces per cell:   6.2963
    boundary patches: 5
    point zones:      0
    face zones:       0
    cell zones:       0

Overall number of cells of each type:
    hexahedra:     2849741
    prisms:        19066
    wedges:        0
    pyramids:      0
    tet wedges:    2058
    tetrahedra:    6
    polyhedra:     588893
    Breakdown of polyhedra by number of faces:
        faces   number of cells
            4   105446
            5   50884
            6   134543
            7   1813
            8   876
            9   203674
           10   463
           11   619
           12   42954
           13   37
           14   699
           15   45172
           16   11
           17   89
           18   1612
           21   1

Checking topology...
    Boundary definition OK.
    Cell to face addressing OK.
    Point usage OK.
    Upper triangular ordering OK.
    Face vertices OK.
    Number of regions: 1 (OK).

Checking patch topology for multiply connected surfaces...
                   Patch    Faces   Points                  Surface topology
                   inlet     2450     2556  ok (non-closed singly connected)
                  outlet     2450     2556  ok (non-closed singly connected)
                farfield     9800    10011  ok (non-closed singly connected)
          symmetry-plane    34551    39672  ok (non-closed singly connected)
           crm-wing-wall   631222   773214  ok (non-closed singly connected)

Checking geometry...
    Overall domain bounding box (-1500 -1500 -1500) (1500 1500 0)
    Mesh has 3 geometric (non-empty/wedge) directions (1 1 1)
    Mesh has 3 solution (non-empty) directions (1 1 1)
    Boundary openness (-1.10587e-18 7.29965e-18 4.31543e-15) OK.
    Max cell openness = 3.77559e-16 OK.
    Max aspect ratio = 7.56843 OK.
    Minimum face area = 4.09561e-08. Maximum face area = 1836.73.  Face area magnitudes OK.
    Min volume = 1.36645e-08. Max volume = 78717.2.  Total volume = 1.35e+10.  Cell volumes OK.
    Mesh non-orthogonality Max: 64.9993 average: 11.6707
    Non-orthogonality check OK.
    Face pyramids OK.
 ***Max skewness = 19.2347, 60 highly skew faces detected which may impair the quality of the results
  <<Writing 60 skew faces to set skewFaces
    Coupled point location match (average 0) OK.

Failed 1 mesh checks.

End

