/*---------------------------------------------------------------------------*\
| =========                 |                                                 |
| \\      /  F ield         | OpenFOAM: The Open Source CFD Toolbox           |
|  \\    /   O peration     | Version:  2206                                  |
|   \\  /    A nd           | Website:  www.openfoam.com                      |
|    \\/     M anipulation  |                                                 |
\*---------------------------------------------------------------------------*/
Build  : _76d719d1-20220624 OPENFOAM=2206 version=2206
Arch   : "LSB;label=32;scalar=64"
Exec   : simpleFoam
Date   : Aug 02 2022
Time   : 10:49:25
Host   : fbff8a078fa8
PID    : 292
I/O    : uncollated
Case   : /home/openfoam
nProcs : 1
trapFpe: Floating point exception trapping enabled (FOAM_SIGFPE).
fileModificationChecking : Monitoring run-time modified files using timeStampMaster (fileModificationSkew 5, maxFileModificationPolls 20)
allowSystemOperations : Allowing user-supplied system call operations

// * * * * * * * * * * * * * * * * * * * * * * * * * * * * * * * * * * * * * //
Create time

Create mesh for time = 0


SIMPLE: convergence criteria
    field p	 tolerance 1e-05
    field U	 tolerance 1e-05
    field "(k|omega|gammaInt|ReThetat)"	 tolerance 0.0001

Reading field p

Reading field U

Reading/calculating face flux field phi

Selecting incompressible transport model Newtonian
Selecting turbulence model type RAS
Selecting RAS turbulence model kOmegaSSTLM
Selecting patchDistMethod meshWave
RAS
{
    RASModel        kOmegaSSTLM;
    turbulence      on;
    printCoeffs     on;
    alphaK1         0.85;
    alphaK2         1;
    alphaOmega1     0.5;
    alphaOmega2     0.856;
    gamma1          0.555556;
    gamma2          0.44;
    beta1           0.075;
    beta2           0.0828;
    betaStar        0.09;
    a1              0.31;
    b1              1;
    c1              10;
    F3              false;
    decayControl    false;
    kInf            0;
    omegaInf        0;
    ca1             2;
    ca2             0.06;
    ce1             1;
    ce2             50;
    cThetat         0.03;
    sigmaThetat     2;
}

No MRF models present

No finite volume options present

Starting time loop

forceCoeffs forceCoeffs:
    rho: rhoInf
    Freestream density (rhoInf) set to 1.225
    Not including porosity effects
    magUInf: 10
    lRef   : 4.8
    Aref   : 0.44
    rhoInf : 1.225
    Selecting all coefficients
    - Drag force: Cd
    - Drag force front: Cd(f)
    - Drag force rear: Cd(r)
    - Lift force: Cl
    - Lift force front: Cl(f)
    - Lift force rear: Cl(r)
    - Pitch moment: CmPitch
    - Roll moment: CmRoll
    - Yaw moment: CmYaw
    - Side force: Cs
    - Side force front: Cs(f)
    - Side force rear: Cs(r)


Time = 1

smoothSolver:  Solving for Ux, Initial residual = 1, Final residual = 0.0105857, No Iterations 1
smoothSolver:  Solving for Uy, Initial residual = 1, Final residual = 0.00764186, No Iterations 1
smoothSolver:  Solving for Uz, Initial residual = 1, Final residual = 0.00978267, No Iterations 1
GAMG:  Solving for p, Initial residual = 1, Final residual = 0.0793925, No Iterations 5
time step continuity errors : sum local = 0.000583559, global = 3.44348e-05, cumulative = 3.44348e-05
smoothSolver:  Solving for omega, Initial residual = 0.381833, Final residual = 0.0031723, No Iterations 1
smoothSolver:  Solving for k, Initial residual = 1, Final residual = 0.00946177, No Iterations 1
smoothSolver:  Solving for ReThetat, Initial residual = 1, Final residual = 7.32768e-07, No Iterations 1
smoothSolver:  Solving for gammaInt, Initial residual = 1, Final residual = 1.20371, No Iterations 100
ExecutionTime = 4.13 s  ClockTime = 4 s

forceCoeffs forceCoeffs write:
    Coefficient	Total	Pressure	Viscous	Internal
    Cd:	-2123.43	-1.58577	-2121.84	0
    Cd(f):	-1061.72	-0.792834	-1060.92	0
    Cd(r):	-1061.72	-0.792937	-1060.92	0
    Cl:	-0.577705	-3.81131e-05	-0.577667	0
    Cl(f):	-0.289226	-0.000381537	-0.288845	0
    Cl(r):	-0.288479	0.000343424	-0.288822	0
    CmPitch:	-0.000373542	-0.000362481	-1.1061e-05	0
    CmRoll:	5.10748e-05	5.16164e-05	-5.4156e-07	0
    CmYaw:	0.000444961	0.000426349	1.86121e-05	0
    Cs:	0.239971	1.29156e-05	0.239959	0
    Cs(f):	0.120431	0.000432807	0.119998	0
    Cs(r):	0.119541	-0.000419891	0.119961	0

Time = 2

smoothSolver:  Solving for Ux, Initial residual = 0.40892, Final residual = 0.00501231, No Iterations 1
smoothSolver:  Solving for Uy, Initial residual = 0.289819, Final residual = 0.00343667, No Iterations 1
smoothSolver:  Solving for Uz, Initial residual = 0.408385, Final residual = 0.00494561, No Iterations 1
GAMG:  Solving for p, Initial residual = 0.218451, Final residual = 0.0146213, No Iterations 3
time step continuity errors : sum local = 0.000623374, global = 3.19899e-05, cumulative = 6.64246e-05
smoothSolver:  Solving for omega, Initial residual = 0.252996, Final residual = 0.00212226, No Iterations 1
smoothSolver:  Solving for k, Initial residual = 0.877851, Final residual = 0.00730114, No Iterations 1
smoothSolver:  Solving for ReThetat, Initial residual = 0.957427, Final residual = 6.86101e-07, No Iterations 1
smoothSolver:  Solving for gammaInt, Initial residual = 0.355442, Final residual = 0.372648, No Iterations 100
ExecutionTime = 6.36 s  ClockTime = 6 s

forceCoeffs forceCoeffs write:
    Coefficient	Total	Pressure	Viscous	Internal
    Cd:	-2388.27	-1.74783	-2386.52	0
    Cd(f):	-1194.13	-0.87381	-1193.26	0
    Cd(r):	-1194.13	-0.874016	-1193.26	0
    Cl:	-0.866192	-0.000142153	-0.86605	0
    Cl(f):	-0.433544	-0.0005054	-0.433038	0
    Cl(r):	-0.432648	0.000363247	-0.433011	0
    CmPitch:	-0.000447811	-0.000434323	-1.34879e-05	0
    CmRoll:	0.000104071	0.000103309	7.6288e-07	0
    CmYaw:	0.000483434	0.000462135	2.12993e-05	0
    Cs:	-0.0704441	-2.82182e-06	-0.0704413	0
    Cs(f):	-0.0347386	0.000460724	-0.0351993	0
    Cs(r):	-0.0357055	-0.000463546	-0.0352419	0

Time = 3

smoothSolver:  Solving for Ux, Initial residual = 0.251534, Final residual = 0.00308444, No Iterations 1
smoothSolver:  Solving for Uy, Initial residual = 0.162237, Final residual = 0.00194326, No Iterations 1
smoothSolver:  Solving for Uz, Initial residual = 0.251873, Final residual = 0.00304, No Iterations 1
GAMG:  Solving for p, Initial residual = 0.215786, Final residual = 0.0113249, No Iterations 3
time step continuity errors : sum local = 0.000682192, global = 3.86078e-05, cumulative = 0.000105032
smoothSolver:  Solving for omega, Initial residual = 0.183866, Final residual = 0.0015541, No Iterations 1
smoothSolver:  Solving for k, Initial residual = 0.403964, Final residual = 0.00338649, No Iterations 1
smoothSolver:  Solving for ReThetat, Initial residual = 0.866297, Final residual = 6.05636e-07, No Iterations 1
smoothSolver:  Solving for gammaInt, Initial residual = 0.257948, Final residual = 0.255255, No Iterations 100
ExecutionTime = 8.58 s  ClockTime = 9 s

forceCoeffs forceCoeffs write:
    Coefficient	Total	Pressure	Viscous	Internal
    Cd:	-1760.53	-1.90209	-1758.63	0
    Cd(f):	-880.267	-0.950995	-879.316	0
    Cd(r):	-880.267	-0.951092	-879.316	0
    Cl:	1.75913	0.000108766	1.75902	0
    Cl(f):	0.879331	-0.000170072	0.879501	0
    Cl(r):	0.879802	0.000278838	0.879523	0
    CmPitch:	-0.000235262	-0.000224455	-1.08071e-05	0
    CmRoll:	5.19803e-05	4.88897e-05	3.09063e-06	0
    CmYaw:	-0.000700435	-0.000706927	6.49211e-06	0
    Cs:	-0.85183	-0.000133583	-0.851696	0
    Cs(f):	-0.426615	-0.000773718	-0.425842	0
    Cs(r):	-0.425215	0.000640135	-0.425855	0

Time = 4

smoothSolver:  Solving for Ux, Initial residual = 0.156193, Final residual = 0.00192015, No Iterations 1
smoothSolver:  Solving for Uy, Initial residual = 0.0986956, Final residual = 0.00119848, No Iterations 1
smoothSolver:  Solving for Uz, Initial residual = 0.155554, Final residual = 0.00187824, No Iterations 1
GAMG:  Solving for p, Initial residual = 0.199893, Final residual = 0.0175805, No Iterations 3
time step continuity errors : sum local = 0.00119669, global = 2.05333e-05, cumulative = 0.000125566
smoothSolver:  Solving for omega, Initial residual = 0.14141, Final residual = 0.00120187, No Iterations 1
smoothSolver:  Solving for k, Initial residual = 0.257333, Final residual = 0.00216968, No Iterations 1
smoothSolver:  Solving for ReThetat, Initial residual = 0.74478, Final residual = 5.06727e-07, No Iterations 1
smoothSolver:  Solving for gammaInt, Initial residual = 0.215818, Final residual = 0.206317, No Iterations 100
ExecutionTime = 10.78 s  ClockTime = 11 s

forceCoeffs forceCoeffs write:
    Coefficient	Total	Pressure	Viscous	Internal
    Cd:	-735.865	-1.90605	-733.958	0
    Cd(f):	-367.932	-0.953126	-366.979	0
    Cd(r):	-367.932	-0.952929	-366.979	0
    Cl:	4.11495	0.00060145	4.11435	0
    Cl(f):	2.05761	0.000401919	2.05721	0
    Cl(r):	2.05734	0.000199531	2.05714	0
    CmPitch:	0.000134167	0.000101194	3.29722e-05	0
    CmRoll:	-9.20272e-05	-9.83791e-05	6.35183e-06	0
    CmYaw:	-0.00171453	-0.00169922	-1.53123e-05	0
    Cs:	-0.976952	-0.000434464	-0.976517	0
    Cs(f):	-0.49019	-0.00191645	-0.488274	0
    Cs(r):	-0.486761	0.00148198	-0.488243	0

Time = 5

smoothSolver:  Solving for Ux, Initial residual = 0.0846482, Final residual = 0.00104388, No Iterations 1
smoothSolver:  Solving for Uy, Initial residual = 0.0549413, Final residual = 0.000674209, No Iterations 1
smoothSolver:  Solving for Uz, Initial residual = 0.0823774, Final residual = 0.000997665, No Iterations 1
GAMG:  Solving for p, Initial residual = 0.18262, Final residual = 0.0111326, No Iterations 4
time step continuity errors : sum local = 0.00075493, global = -1.9718e-05, cumulative = 0.000105848
smoothSolver:  Solving for omega, Initial residual = 0.112697, Final residual = 0.000961328, No Iterations 1
smoothSolver:  Solving for k, Initial residual = 0.186614, Final residual = 0.00158036, No Iterations 1
smoothSolver:  Solving for ReThetat, Initial residual = 0.613822, Final residual = 4.05526e-07, No Iterations 1
smoothSolver:  Solving for gammaInt, Initial residual = 0.191971, Final residual = 0.181565, No Iterations 100
ExecutionTime = 13.05 s  ClockTime = 13 s

forceCoeffs forceCoeffs write:
    Coefficient	Total	Pressure	Viscous	Internal
    Cd:	253.725	-1.79146	255.516	0
    Cd(f):	126.862	-0.895979	127.758	0
    Cd(r):	126.863	-0.895484	127.758	0
    Cl:	2.53483	0.000941876	2.53388	0
    Cl(f):	1.26773	0.000736642	1.26699	0
    Cl(r):	1.2671	0.000205234	1.26689	0
    CmPitch:	0.000315896	0.000265704	5.0192e-05	0
    CmRoll:	-0.00023939	-0.000247426	8.036e-06	0
    CmYaw:	-0.00130561	-0.0012597	-4.59115e-05	0
    Cs:	-0.212934	-0.000520816	-0.212413	0
    Cs(f):	-0.107772	-0.00152011	-0.106252	0
    Cs(r):	-0.105161	0.000999293	-0.106161	0

Time = 6

smoothSolver:  Solving for Ux, Initial residual = 0.0386085, Final residual = 0.000463495, No Iterations 1
smoothSolver:  Solving for Uy, Initial residual = 0.0268884, Final residual = 0.000325569, No Iterations 1
smoothSolver:  Solving for Uz, Initial residual = 0.0349794, Final residual = 0.000411706, No Iterations 1
GAMG:  Solving for p, Initial residual = 0.213877, Final residual = 0.0202302, No Iterations 3
time step continuity errors : sum local = 0.00110446, global = -3.81153e-05, cumulative = 6.77324e-05
smoothSolver:  Solving for omega, Initial residual = 0.0925257, Final residual = 0.000791657, No Iterations 1
smoothSolver:  Solving for k, Initial residual = 0.145663, Final residual = 0.00123824, No Iterations 1
smoothSolver:  Solving for ReThetat, Initial residual = 0.491217, Final residual = 3.14142e-07, No Iterations 1
smoothSolver:  Solving for gammaInt, Initial residual = 0.173816, Final residual = 0.164813, No Iterations 100
ExecutionTime = 15.27 s  ClockTime = 15 s

forceCoeffs forceCoeffs write:
    Coefficient	Total	Pressure	Viscous	Internal
    Cd:	816.564	-1.62513	818.189	0
    Cd(f):	408.281	-0.813001	409.094	0
    Cd(r):	408.282	-0.812131	409.094	0
    Cl:	0.857548	0.00112812	0.85642	0
    Cl(f):	0.429389	0.00112886	0.42826	0
    Cl(r):	0.42816	-7.33933e-07	0.42816	0
    CmPitch:	0.000614372	0.000564796	4.9576e-05	0
    CmRoll:	-0.000427651	-0.000434803	7.15174e-06	0
    CmYaw:	-0.000827604	-0.000748148	-7.94563e-05	0
    Cs:	0.333333	-0.000247392	0.333581	0
    Cs(f):	0.165839	-0.000871844	0.166711	0
    Cs(r):	0.167494	0.000624451	0.16687	0

Time = 7

smoothSolver:  Solving for Ux, Initial residual = 0.05256, Final residual = 0.000627411, No Iterations 1
smoothSolver:  Solving for Uy, Initial residual = 0.0376125, Final residual = 0.000438379, No Iterations 1
smoothSolver:  Solving for Uz, Initial residual = 0.0534216, Final residual = 0.000628423, No Iterations 1
GAMG:  Solving for p, Initial residual = 0.267644, Final residual = 0.0142149, No Iterations 3
time step continuity errors : sum local = 0.000533775, global = -3.3748e-05, cumulative = 3.39844e-05
smoothSolver:  Solving for omega, Initial residual = 0.0785585, Final residual = 0.000673751, No Iterations 1
smoothSolver:  Solving for k, Initial residual = 0.119181, Final residual = 0.00101697, No Iterations 1
smoothSolver:  Solving for ReThetat, Initial residual = 0.387527, Final residual = 2.39588e-07, No Iterations 1
smoothSolver:  Solving for gammaInt, Initial residual = 0.160029, Final residual = 0.149332, No Iterations 100
ExecutionTime = 17.6 s  ClockTime = 18 s

forceCoeffs forceCoeffs write:
    Coefficient	Total	Pressure	Viscous	Internal
    Cd:	920.194	-1.46768	921.662	0
    Cd(f):	460.097	-0.734351	460.831	0
    Cd(r):	460.098	-0.733332	460.831	0
    Cl:	-1.81519	0.000996918	-1.81618	0
    Cl(f):	-0.906981	0.00107736	-0.908059	0
    Cl(r):	-0.908204	-8.04439e-05	-0.908124	0
    CmPitch:	0.000611384	0.000578903	3.24809e-05	0
    CmRoll:	-0.000505504	-0.000509313	3.80873e-06	0
    CmYaw:	0.000301895	0.000396222	-9.43272e-05	0
    Cs:	0.589434	5.6635e-05	0.589377	0
    Cs(f):	0.295019	0.000424539	0.294594	0
    Cs(r):	0.294415	-0.000367904	0.294783	0

Time = 8

smoothSolver:  Solving for Ux, Initial residual = 0.0920146, Final residual = 0.00112097, No Iterations 1
smoothSolver:  Solving for Uy, Initial residual = 0.0635876, Final residual = 0.00076847, No Iterations 1
smoothSolver:  Solving for Uz, Initial residual = 0.0936807, Final residual = 0.00112399, No Iterations 1
GAMG:  Solving for p, Initial residual = 0.412309, Final residual = 0.0259464, No Iterations 3
time step continuity errors : sum local = 0.000588104, global = -7.07412e-05, cumulative = -3.67568e-05
smoothSolver:  Solving for omega, Initial residual = 0.0683843, Final residual = 0.000588589, No Iterations 1
smoothSolver:  Solving for k, Initial residual = 0.1007, Final residual = 0.000862779, No Iterations 1
smoothSolver:  Solving for ReThetat, Initial residual = 0.305457, Final residual = 1.82167e-07, No Iterations 1
smoothSolver:  Solving for gammaInt, Initial residual = 0.148591, Final residual = 0.137958, No Iterations 100
ExecutionTime = 19.91 s  ClockTime = 20 s

forceCoeffs forceCoeffs write:
    Coefficient	Total	Pressure	Viscous	Internal
    Cd:	679.96	-1.35489	681.315	0
    Cd(f):	339.98	-0.677921	340.658	0
    Cd(r):	339.981	-0.676972	340.658	0
    Cl:	-3.7216	0.000579973	-3.72218	0
    Cl(f):	-1.86041	0.000676306	-1.86109	0
    Cl(r):	-1.86119	-9.6333e-05	-1.86109	0
    CmPitch:	0.000386466	0.00038632	1.46534e-07	0
    CmRoll:	-0.000470448	-0.000474267	3.81893e-06	0
    CmYaw:	0.00154984	0.00161404	-6.42015e-05	0
    Cs:	0.358675	0.000203606	0.358471	0
    Cs(f):	0.180887	0.00171585	0.179171	0
    Cs(r):	0.177787	-0.00151224	0.1793	0

Time = 9

smoothSolver:  Solving for Ux, Initial residual = 0.109576, Final residual = 0.00134349, No Iterations 1
smoothSolver:  Solving for Uy, Initial residual = 0.0737255, Final residual = 0.000900701, No Iterations 1
smoothSolver:  Solving for Uz, Initial residual = 0.107873, Final residual = 0.00130175, No Iterations 1
GAMG:  Solving for p, Initial residual = 0.270337, Final residual = 0.0160126, No Iterations 3
time step continuity errors : sum local = 0.000543203, global = -5.92672e-05, cumulative = -9.60239e-05
smoothSolver:  Solving for omega, Initial residual = 0.0606496, Final residual = 0.00052408, No Iterations 1
smoothSolver:  Solving for k, Initial residual = 0.0870615, Final residual = 0.000749382, No Iterations 1
smoothSolver:  Solving for ReThetat, Initial residual = 0.242736, Final residual = 1.39221e-07, No Iterations 1
smoothSolver:  Solving for gammaInt, Initial residual = 0.137045, Final residual = 0.127172, No Iterations 100
ExecutionTime = 22.21 s  ClockTime = 22 s

forceCoeffs forceCoeffs write:
    Coefficient	Total	Pressure	Viscous	Internal
    Cd:	285.099	-1.31558	286.414	0
    Cd(f):	142.549	-0.658081	143.207	0
    Cd(r):	142.55	-0.657503	143.207	0
    Cl:	-4.33947	5.32106e-05	-4.33953	0
    Cl(f):	-2.16969	0.000102925	-2.16979	0
    Cl(r):	-2.16979	-4.97146e-05	-2.16974	0
    CmPitch:	4.83513e-05	7.63199e-05	-2.79686e-05	0
    CmRoll:	-0.000284186	-0.000288905	4.71965e-06	0
    CmYaw:	0.00225293	0.00228223	-2.9304e-05	0
    Cs:	-0.00688866	0.000277209	-0.00716587	0
    Cs(f):	-0.00119141	0.00242083	-0.00361224	0
    Cs(r):	-0.00569726	-0.00214362	-0.00355363	0

Time = 10

smoothSolver:  Solving for Ux, Initial residual = 0.0990041, Final residual = 0.00120675, No Iterations 1
smoothSolver:  Solving for Uy, Initial residual = 0.0630658, Final residual = 0.000773606, No Iterations 1
smoothSolver:  Solving for Uz, Initial residual = 0.0907775, Final residual = 0.00108156, No Iterations 1
GAMG:  Solving for p, Initial residual = 0.207642, Final residual = 0.0147038, No Iterations 3
time step continuity errors : sum local = 0.000628079, global = -2.27056e-05, cumulative = -0.00011873
smoothSolver:  Solving for omega, Initial residual = 0.0544811, Final residual = 0.00047337, No Iterations 1
smoothSolver:  Solving for k, Initial residual = 0.0765981, Final residual = 0.000662516, No Iterations 1
smoothSolver:  Solving for ReThetat, Initial residual = 0.195363, Final residual = 1.07449e-07, No Iterations 1
smoothSolver:  Solving for gammaInt, Initial residual = 0.128334, Final residual = 0.11839, No Iterations 100
ExecutionTime = 24.42 s  ClockTime = 24 s

forceCoeffs forceCoeffs write:
    Coefficient	Total	Pressure	Viscous	Internal
    Cd:	-86.8478	-1.33842	-85.5094	0
    Cd(f):	-43.424	-0.66925	-42.7547	0
    Cd(r):	-43.4239	-0.669167	-42.7547	0
    Cl:	-3.2932	-0.000359336	-3.29284	0
    Cl(f):	-1.64685	-0.000400959	-1.64645	0
    Cl(r):	-1.64635	4.16229e-05	-1.64639	0
    CmPitch:	-0.000251482	-0.000221291	-3.01911e-05	0
    CmRoll:	-3.80404e-05	-4.14831e-05	3.44268e-06	0
    CmYaw:	0.00217034	0.00219264	-2.22937e-05	0
    Cs:	-0.222435	0.000299191	-0.222734	0
    Cs(f):	-0.109047	0.00234223	-0.111389	0
    Cs(r):	-0.113388	-0.00204304	-0.111345	0

Time = 11

smoothSolver:  Solving for Ux, Initial residual = 0.0726582, Final residual = 0.000882063, No Iterations 1
smoothSolver:  Solving for Uy, Initial residual = 0.0426261, Final residual = 0.000525128, No Iterations 1
smoothSolver:  Solving for Uz, Initial residual = 0.0623257, Final residual = 0.000735278, No Iterations 1
GAMG:  Solving for p, Initial residual = 0.19, Final residual = 0.0132805, No Iterations 3
time step continuity errors : sum local = 0.000583379, global = 1.18436e-05, cumulative = -0.000106886
smoothSolver:  Solving for omega, Initial residual = 0.0494569, Final residual = 0.000432544, No Iterations 1
smoothSolver:  Solving for k, Initial residual = 0.0683062, Final residual = 0.000594021, No Iterations 1
smoothSolver:  Solving for ReThetat, Initial residual = 0.159574, Final residual = 8.41241e-08, No Iterations 1
smoothSolver:  Solving for gammaInt, Initial residual = 0.120971, Final residual = 0.111255, No Iterations 100
ExecutionTime = 26.68 s  ClockTime = 27 s

forceCoeffs forceCoeffs write:
    Coefficient	Total	Pressure	Viscous	Internal
    Cd:	-317.868	-1.38772	-316.481	0
    Cd(f):	-158.934	-0.693668	-158.24	0
    Cd(r):	-158.934	-0.694049	-158.24	0
    Cl:	-1.08469	-0.000576939	-1.08411	0
    Cl(f):	-0.542742	-0.000663942	-0.542078	0
    Cl(r):	-0.541947	8.70033e-05	-0.542034	0
    CmPitch:	-0.000397313	-0.000375473	-2.18405e-05	0
    CmRoll:	0.000192306	0.000190313	1.99323e-06	0
    CmYaw:	0.00136669	0.00136865	-1.95373e-06	0
    Cs:	-0.146732	0.00014686	-0.146879	0
    Cs(f):	-0.0719991	0.00144208	-0.0734412	0
    Cs(r):	-0.0747325	-0.00129522	-0.0734373	0

Time = 12

smoothSolver:  Solving for Ux, Initial residual = 0.0526745, Final residual = 0.00063439, No Iterations 1
smoothSolver:  Solving for Uy, Initial residual = 0.0307493, Final residual = 0.000365408, No Iterations 1
smoothSolver:  Solving for Uz, Initial residual = 0.0482997, Final residual = 0.000567414, No Iterations 1
GAMG:  Solving for p, Initial residual = 0.210867, Final residual = 0.0109016, No Iterations 3
time step continuity errors : sum local = 0.000382277, global = 2.07415e-05, cumulative = -8.61445e-05
smoothSolver:  Solving for omega, Initial residual = 0.0452835, Final residual = 0.000398827, No Iterations 1
smoothSolver:  Solving for k, Initial residual = 0.0615152, Final residual = 0.000538081, No Iterations 1
smoothSolver:  Solving for ReThetat, Initial residual = 0.132367, Final residual = 6.70097e-08, No Iterations 1
smoothSolver:  Solving for gammaInt, Initial residual = 0.115797, Final residual = 0.106777, No Iterations 100
ExecutionTime = 28.89 s  ClockTime = 29 s

forceCoeffs forceCoeffs write:
    Coefficient	Total	Pressure	Viscous	Internal
    Cd:	-373.194	-1.43375	-371.76	0
    Cd(f):	-186.597	-0.716559	-185.88	0
    Cd(r):	-186.597	-0.71719	-185.88	0
    Cl:	1.23934	-0.000527655	1.23987	0
    Cl(f):	0.619322	-0.000610139	0.619932	0
    Cl(r):	0.620023	8.24837e-05	0.61994	0
    CmPitch:	-0.000350529	-0.000346311	-4.21761e-06	0
    CmRoll:	0.000316688	0.000315154	1.53427e-06	0
    CmYaw:	0.000243665	0.000232741	1.09234e-05	0
    Cs:	0.136556	-5.73543e-05	0.136613	0
    Cs(f):	0.0685215	0.000204064	0.0683174	0
    Cs(r):	0.0680342	-0.000261418	0.0682956	0

Time = 13

smoothSolver:  Solving for Ux, Initial residual = 0.0519804, Final residual = 0.000634589, No Iterations 1
smoothSolver:  Solving for Uy, Initial residual = 0.0317501, Final residual = 0.000385821, No Iterations 1
smoothSolver:  Solving for Uz, Initial residual = 0.0505085, Final residual = 0.000606837, No Iterations 1
GAMG:  Solving for p, Initial residual = 0.338231, Final residual = 0.0225615, No Iterations 3
time step continuity errors : sum local = 0.000404891, global = 4.66486e-05, cumulative = -3.94959e-05
smoothSolver:  Solving for omega, Initial residual = 0.0417365, Final residual = 0.000370165, No Iterations 1
smoothSolver:  Solving for k, Initial residual = 0.055806, Final residual = 0.000491106, No Iterations 1
smoothSolver:  Solving for ReThetat, Initial residual = 0.111538, Final residual = 5.43265e-08, No Iterations 1
smoothSolver:  Solving for gammaInt, Initial residual = 0.110082, Final residual = 0.101492, No Iterations 100
ExecutionTime = 31.16 s  ClockTime = 31 s

forceCoeffs forceCoeffs write:
    Coefficient	Total	Pressure	Viscous	Internal
    Cd:	-293.863	-1.45752	-292.405	0
    Cd(f):	-146.931	-0.728438	-146.203	0
    Cd(r):	-146.932	-0.729085	-146.203	0
    Cl:	2.63149	-0.000253467	2.63175	0
    Cl(f):	1.31558	-0.000309946	1.31589	0
    Cl(r):	1.31591	5.6479e-05	1.31585	0
    CmPitch:	-0.000162751	-0.000183212	2.04615e-05	0
    CmRoll:	0.000324253	0.000323574	6.79032e-07	0
    CmYaw:	-0.000807803	-0.000785252	-2.25511e-05	0
    Cs:	0.465158	-6.9971e-05	0.465228	0
    Cs(f):	0.231771	-0.000820237	0.232591	0
    Cs(r):	0.233387	0.000750266	0.232636	0

Time = 14

smoothSolver:  Solving for Ux, Initial residual = 0.0514459, Final residual = 0.000634635, No Iterations 1
smoothSolver:  Solving for Uy, Initial residual = 0.0321497, Final residual = 0.000396362, No Iterations 1
smoothSolver:  Solving for Uz, Initial residual = 0.0484041, Final residual = 0.00058642, No Iterations 1
GAMG:  Solving for p, Initial residual = 0.303426, Final residual = 0.0165993, No Iterations 3
time step continuity errors : sum local = 0.000309071, global = 6.12217e-05, cumulative = 2.17258e-05
smoothSolver:  Solving for omega, Initial residual = 0.0386661, Final residual = 0.000345248, No Iterations 1
smoothSolver:  Solving for k, Initial residual = 0.0509059, Final residual = 0.000450753, No Iterations 1
smoothSolver:  Solving for ReThetat, Initial residual = 0.095433, Final residual = 4.48307e-08, No Iterations 1
smoothSolver:  Solving for gammaInt, Initial residual = 0.106285, Final residual = 0.098415, No Iterations 100
ExecutionTime = 33.6 s  ClockTime = 34 s

forceCoeffs forceCoeffs write:
    Coefficient	Total	Pressure	Viscous	Internal
    Cd:	-154.208	-1.45127	-152.757	0
    Cd(f):	-77.1039	-0.72542	-76.3785	0
    Cd(r):	-77.1044	-0.72585	-76.3785	0
    Cl:	2.90724	0.000108994	2.90713	0
    Cl(f):	1.45367	6.50979e-05	1.4536	0
    Cl(r):	1.45357	4.38956e-05	1.45353	0
    CmPitch:	4.90892e-05	1.06011e-05	3.84881e-05	0
    CmRoll:	0.000215072	0.000215104	-3.1156e-08	0
    CmYaw:	-0.00145061	-0.00136998	-8.06321e-05	0
    Cs:	0.619295	6.26752e-05	0.619233	0
    Cs(f):	0.308197	-0.00133864	0.309536	0
    Cs(r):	0.311098	0.00140132	0.309697	0

Time = 15

smoothSolver:  Solving for Ux, Initial residual = 0.0440338, Final residual = 0.000540326, No Iterations 1
smoothSolver:  Solving for Uy, Initial residual = 0.0280374, Final residual = 0.000344885, No Iterations 1
smoothSolver:  Solving for Uz, Initial residual = 0.0390858, Final residual = 0.000467942, No Iterations 1
GAMG:  Solving for p, Initial residual = 0.184608, Final residual = 0.00967741, No Iterations 3
time step continuity errors : sum local = 0.000281257, global = 3.50888e-05, cumulative = 5.68146e-05
smoothSolver:  Solving for omega, Initial residual = 0.0359597, Final residual = 0.0003231, No Iterations 1
smoothSolver:  Solving for k, Initial residual = 0.0467205, Final residual = 0.000416251, No Iterations 1
smoothSolver:  Solving for ReThetat, Initial residual = 0.0828296, Final residual = 3.76675e-08, No Iterations 1
smoothSolver:  Solving for gammaInt, Initial residual = 0.103008, Final residual = 0.0945031, No Iterations 100
ExecutionTime = 35.98 s  ClockTime = 36 s

forceCoeffs forceCoeffs write:
    Coefficient	Total	Pressure	Viscous	Internal
    Cd:	-15.8144	-1.41853	-14.3959	0
    Cd(f):	-7.90714	-0.709218	-7.19793	0
    Cd(r):	-7.90724	-0.709309	-7.19793	0
    Cl:	2.18258	0.000414099	2.18217	0
    Cl(f):	1.0915	0.000371765	1.09112	0
    Cl(r):	1.09109	4.23342e-05	1.09105	0
    CmPitch:	0.000204146	0.000164715	3.94307e-05	0
    CmRoll:	4.63231e-05	4.52952e-05	1.02787e-06	0
    CmYaw:	-0.00149115	-0.00139448	-9.66684e-05	0
    Cs:	0.474442	0.000107688	0.474334	0
    Cs(f):	0.23573	-0.00134064	0.23707	0
    Cs(r):	0.238712	0.00144832	0.237264	0

Time = 16

smoothSolver:  Solving for Ux, Initial residual = 0.0329159, Final residual = 0.000400282, No Iterations 1
smoothSolver:  Solving for Uy, Initial residual = 0.0213848, Final residual = 0.000259548, No Iterations 1
smoothSolver:  Solving for Uz, Initial residual = 0.0284727, Final residual = 0.000334639, No Iterations 1
GAMG:  Solving for p, Initial residual = 0.137098, Final residual = 0.00752241, No Iterations 3
time step continuity errors : sum local = 0.000270473, global = 6.36016e-06, cumulative = 6.31748e-05
smoothSolver:  Solving for omega, Initial residual = 0.0335635, Final residual = 0.000303343, No Iterations 1
smoothSolver:  Solving for k, Initial residual = 0.043114, Final residual = 0.000386469, No Iterations 1
smoothSolver:  Solving for ReThetat, Initial residual = 0.0727897, Final residual = 3.21991e-08, No Iterations 1
smoothSolver:  Solving for gammaInt, Initial residual = 0.098843, Final residual = 0.0909606, No Iterations 100
ExecutionTime = 38.28 s  ClockTime = 38 s

forceCoeffs forceCoeffs write:
    Coefficient	Total	Pressure	Viscous	Internal
    Cd:	76.2551	-1.37222	77.6273	0
    Cd(f):	38.1274	-0.686224	38.8136	0
    Cd(r):	38.1276	-0.685995	38.8136	0
    Cl:	0.852195	0.000574927	0.851621	0
    Cl(f):	0.426356	0.000522118	0.425834	0
    Cl(r):	0.425839	5.28088e-05	0.425787	0
    CmPitch:	0.000258329	0.000234655	2.3674e-05	0
    CmRoll:	-0.000112944	-0.000114643	1.69939e-06	0
    CmYaw:	-0.00100292	-0.000950031	-5.28848e-05	0
    Cs:	0.134665	3.78919e-07	0.134665	0
    Cs(f):	0.0663296	-0.000949841	0.0672795	0
    Cs(r):	0.0683354	0.00095022	0.0673852	0

Time = 17

smoothSolver:  Solving for Ux, Initial residual = 0.023223, Final residual = 0.000279752, No Iterations 1
smoothSolver:  Solving for Uy, Initial residual = 0.0152885, Final residual = 0.000181706, No Iterations 1
smoothSolver:  Solving for Uz, Initial residual = 0.0205616, Final residual = 0.000238563, No Iterations 1
GAMG:  Solving for p, Initial residual = 0.120907, Final residual = 0.00608166, No Iterations 3
time step continuity errors : sum local = 0.000217068, global = -5.71489e-06, cumulative = 5.74599e-05
smoothSolver:  Solving for omega, Initial residual = 0.0314115, Final residual = 0.000285427, No Iterations 1
smoothSolver:  Solving for k, Initial residual = 0.0399897, Final residual = 0.000360595, No Iterations 1
smoothSolver:  Solving for ReThetat, Initial residual = 0.0646703, Final residual = 2.79555e-08, No Iterations 1
smoothSolver:  Solving for gammaInt, Initial residual = 0.0963895, Final residual = 0.0884856, No Iterations 100
ExecutionTime = 40.49 s  ClockTime = 41 s

forceCoeffs forceCoeffs write:
    Coefficient	Total	Pressure	Viscous	Internal
    Cd:	105.668	-1.32634	106.995	0
    Cd(f):	52.834	-0.663381	53.4974	0
    Cd(r):	52.8344	-0.662964	53.4974	0
    Cl:	-0.483597	0.000585911	-0.484182	0
    Cl(f):	-0.241576	0.00050983	-0.242086	0
    Cl(r):	-0.24202	7.60809e-05	-0.242096	0
    CmPitch:	0.000222146	0.000216874	5.27204e-06	0
    CmRoll:	-0.000206709	-0.000208907	2.19797e-06	0
    CmYaw:	-0.000280189	-0.000263871	-1.63173e-05	0
    Cs:	-0.218013	-6.29992e-05	-0.21795	0
    Cs(f):	-0.109287	-0.000295371	-0.108991	0
    Cs(r):	-0.108726	0.000232372	-0.108959	0

Time = 18

smoothSolver:  Solving for Ux, Initial residual = 0.0202163, Final residual = 0.000242399, No Iterations 1
smoothSolver:  Solving for Uy, Initial residual = 0.0139865, Final residual = 0.000166531, No Iterations 1
smoothSolver:  Solving for Uz, Initial residual = 0.0192244, Final residual = 0.000224827, No Iterations 1
GAMG:  Solving for p, Initial residual = 0.134223, Final residual = 0.00803048, No Iterations 3
time step continuity errors : sum local = 0.000223839, global = -1.93988e-05, cumulative = 3.80612e-05
smoothSolver:  Solving for omega, Initial residual = 0.029453, Final residual = 0.000268986, No Iterations 1
smoothSolver:  Solving for k, Initial residual = 0.0372698, Final residual = 0.000338, No Iterations 1
smoothSolver:  Solving for ReThetat, Initial residual = 0.0580729, Final residual = 2.46305e-08, No Iterations 1
smoothSolver:  Solving for gammaInt, Initial residual = 0.0930053, Final residual = 0.085177, No Iterations 100
ExecutionTime = 42.8 s  ClockTime = 43 s

forceCoeffs forceCoeffs write:
    Coefficient	Total	Pressure	Viscous	Internal
    Cd:	83.4222	-1.28997	84.7122	0
    Cd(f):	41.7109	-0.645211	42.3561	0
    Cd(r):	41.7113	-0.644763	42.3561	0
    Cl:	-1.32063	0.0004793	-1.32111	0
    Cl(f):	-0.660186	0.000377256	-0.660563	0
    Cl(r):	-0.660445	0.000102044	-0.660547	0
    CmPitch:	0.000129464	0.000137606	-8.14182e-06	0
    CmRoll:	-0.000220865	-0.000223941	3.07568e-06	0
    CmYaw:	0.00037113	0.000347551	2.35792e-05	0
    Cs:	-0.469968	-0.000157599	-0.46981	0
    Cs(f):	-0.234613	0.000268752	-0.234881	0
    Cs(r):	-0.235355	-0.000426351	-0.234929	0

Time = 19

smoothSolver:  Solving for Ux, Initial residual = 0.0220714, Final residual = 0.00026835, No Iterations 1
smoothSolver:  Solving for Uy, Initial residual = 0.0152911, Final residual = 0.000187, No Iterations 1
smoothSolver:  Solving for Uz, Initial residual = 0.0210435, Final residual = 0.000249789, No Iterations 1
GAMG:  Solving for p, Initial residual = 0.191239, Final residual = 0.0102502, No Iterations 3
time step continuity errors : sum local = 0.000180437, global = -3.98775e-05, cumulative = -1.81638e-06
smoothSolver:  Solving for omega, Initial residual = 0.0276877, Final residual = 0.000254032, No Iterations 1
smoothSolver:  Solving for k, Initial residual = 0.034862, Final residual = 0.000317908, No Iterations 1
smoothSolver:  Solving for ReThetat, Initial residual = 0.0526409, Final residual = 2.19845e-08, No Iterations 1
smoothSolver:  Solving for gammaInt, Initial residual = 0.0904236, Final residual = 0.0819613, No Iterations 100
ExecutionTime = 44.98 s  ClockTime = 45 s

forceCoeffs forceCoeffs write:
    Coefficient	Total	Pressure	Viscous	Internal
    Cd:	35.5345	-1.26608	36.8006	0
    Cd(f):	17.7671	-0.633204	18.4003	0
    Cd(r):	17.7674	-0.632871	18.4003	0
    Cl:	-1.51365	0.000327867	-1.51398	0
    Cl(f):	-0.756794	0.000207953	-0.757002	0
    Cl(r):	-0.756855	0.000119914	-0.756975	0
    CmPitch:	3.06586e-05	4.40195e-05	-1.33608e-05	0
    CmRoll:	-0.000162977	-0.000166293	3.31627e-06	0
    CmYaw:	0.000753072	0.000703624	4.94477e-05	0
    Cs:	-0.527571	-0.000229559	-0.527341	0
    Cs(f):	-0.263032	0.000588845	-0.263621	0
    Cs(r):	-0.264538	-0.000818404	-0.26372	0

Time = 20

smoothSolver:  Solving for Ux, Initial residual = 0.0233736, Final residual = 0.000287334, No Iterations 1
smoothSolver:  Solving for Uy, Initial residual = 0.0150644, Final residual = 0.000182892, No Iterations 1
smoothSolver:  Solving for Uz, Initial residual = 0.0210325, Final residual = 0.000249045, No Iterations 1
GAMG:  Solving for p, Initial residual = 0.32542, Final residual = 0.032199, No Iterations 2
time step continuity errors : sum local = 0.000301817, global = -5.23298e-05, cumulative = -5.41462e-05
smoothSolver:  Solving for omega, Initial residual = 0.0261048, Final residual = 0.000240512, No Iterations 1
smoothSolver:  Solving for k, Initial residual = 0.0327176, Final residual = 0.000299915, No Iterations 1
smoothSolver:  Solving for ReThetat, Initial residual = 0.0481101, Final residual = 1.98453e-08, No Iterations 1
smoothSolver:  Solving for gammaInt, Initial residual = 0.0873466, Final residual = 0.0796389, No Iterations 100
ExecutionTime = 47.19 s  ClockTime = 47 s

forceCoeffs forceCoeffs write:
    Coefficient	Total	Pressure	Viscous	Internal
    Cd:	-9.78593	-1.25158	-8.53435	0
    Cd(f):	-4.893	-0.62583	-4.26717	0
    Cd(r):	-4.89293	-0.625749	-4.26718	0
    Cl:	-1.22237	0.000208653	-1.22258	0
    Cl(f):	-0.611248	4.693e-05	-0.611295	0
    Cl(r):	-0.611121	0.000161723	-0.611283	0
    CmPitch:	-6.32971e-05	-5.73966e-05	-5.90052e-06	0
    CmRoll:	-3.79622e-05	-4.04633e-05	2.50113e-06	0
    CmYaw:	0.000942894	0.000884028	5.88665e-05	0
    Cs:	-0.513143	-0.00029063	-0.512853	0
    Cs(f):	-0.255629	0.000738713	-0.256367	0
    Cs(r):	-0.257514	-0.00102934	-0.256485	0

Time = 21

smoothSolver:  Solving for Ux, Initial residual = 0.0219353, Final residual = 0.000269233, No Iterations 1
smoothSolver:  Solving for Uy, Initial residual = 0.0128532, Final residual = 0.000154491, No Iterations 1
smoothSolver:  Solving for Uz, Initial residual = 0.018934, Final residual = 0.000222439, No Iterations 1
GAMG:  Solving for p, Initial residual = 0.207187, Final residual = 0.0099182, No Iterations 3
time step continuity errors : sum local = 0.000134017, global = -1.55313e-05, cumulative = -6.96775e-05
smoothSolver:  Solving for omega, Initial residual = 0.0246695, Final residual = 0.000228261, No Iterations 1
smoothSolver:  Solving for k, Initial residual = 0.0308129, Final residual = 0.000283722, No Iterations 1
smoothSolver:  Solving for ReThetat, Initial residual = 0.0442858, Final residual = 1.80835e-08, No Iterations 1
smoothSolver:  Solving for gammaInt, Initial residual = 0.085248, Final residual = 0.0776652, No Iterations 100
ExecutionTime = 49.47 s  ClockTime = 50 s

forceCoeffs forceCoeffs write:
    Coefficient	Total	Pressure	Viscous	Internal
    Cd:	-51.4556	-1.24383	-50.2118	0
    Cd(f):	-25.7278	-0.621863	-25.1059	0
    Cd(r):	-25.7279	-0.621966	-25.1059	0
    Cl:	-0.581831	0.000129878	-0.58196	0
    Cl(f):	-0.290997	-2.13092e-05	-0.290976	0
    Cl(r):	-0.290834	0.000151187	-0.290985	0
    CmPitch:	-8.16183e-05	-8.6248e-05	4.62965e-06	0
    CmRoll:	5.2766e-05	5.15561e-05	1.20994e-06	0
    CmYaw:	0.000646181	0.000589609	5.65724e-05	0
    Cs:	-0.0219671	-0.00029818	-0.0216689	0
    Cs(f):	-0.0103374	0.000440519	-0.0107779	0
    Cs(r):	-0.0116297	-0.000738699	-0.010891	0

Time = 22

smoothSolver:  Solving for Ux, Initial residual = 0.0167163, Final residual = 0.000201449, No Iterations 1
smoothSolver:  Solving for Uy, Initial residual = 0.00922698, Final residual = 0.000109595, No Iterations 1
smoothSolver:  Solving for Uz, Initial residual = 0.01468, Final residual = 0.000169529, No Iterations 1
GAMG:  Solving for p, Initial residual = 0.142277, Final residual = 0.00690072, No Iterations 3
time step continuity errors : sum local = 0.000120513, global = -4.07219e-06, cumulative = -7.37497e-05
smoothSolver:  Solving for omega, Initial residual = 0.023377, Final residual = 0.000217209, No Iterations 1
smoothSolver:  Solving for k, Initial residual = 0.0290963, Final residual = 0.000269049, No Iterations 1
smoothSolver:  Solving for ReThetat, Initial residual = 0.0410224, Final residual = 1.66177e-08, No Iterations 1
smoothSolver:  Solving for gammaInt, Initial residual = 0.0829278, Final residual = 0.0758367, No Iterations 100
ExecutionTime = 51.72 s  ClockTime = 52 s

forceCoeffs forceCoeffs write:
    Coefficient	Total	Pressure	Viscous	Internal
    Cd:	-71.3163	-1.23856	-70.0777	0
    Cd(f):	-35.658	-0.619167	-35.0389	0
    Cd(r):	-35.6582	-0.619396	-35.0389	0
    Cl:	0.0734305	0.000113354	0.0733171	0
    Cl(f):	0.0366518	-2.30836e-05	0.0366748	0
    Cl(r):	0.0367787	0.000136438	0.0366423	0
    CmPitch:	-6.34922e-05	-7.97607e-05	1.62685e-05	0
    CmRoll:	0.000113676	0.000114185	-5.09807e-07	0
    CmYaw:	0.000227674	0.000190963	3.67109e-05	0
    Cs:	0.407757	-0.000231428	0.407989	0
    Cs(f):	0.204106	7.52488e-05	0.204031	0
    Cs(r):	0.203651	-0.000306677	0.203958	0

Time = 23

smoothSolver:  Solving for Ux, Initial residual = 0.0145095, Final residual = 0.000173518, No Iterations 1
smoothSolver:  Solving for Uy, Initial residual = 0.00839925, Final residual = 9.92759e-05, No Iterations 1
smoothSolver:  Solving for Uz, Initial residual = 0.0132748, Final residual = 0.000154773, No Iterations 1
GAMG:  Solving for p, Initial residual = 0.133936, Final residual = 0.00676112, No Iterations 3
time step continuity errors : sum local = 0.000111008, global = 5.5097e-06, cumulative = -6.824e-05
smoothSolver:  Solving for omega, Initial residual = 0.0221999, Final residual = 0.00020712, No Iterations 1
smoothSolver:  Solving for k, Initial residual = 0.0275377, Final residual = 0.0002557, No Iterations 1
smoothSolver:  Solving for ReThetat, Initial residual = 0.0382107, Final residual = 1.53904e-08, No Iterations 1
smoothSolver:  Solving for gammaInt, Initial residual = 0.0812592, Final residual = 0.0740463, No Iterations 100
ExecutionTime = 53.99 s  ClockTime = 54 s

forceCoeffs forceCoeffs write:
    Coefficient	Total	Pressure	Viscous	Internal
    Cd:	-70.4616	-1.2317	-69.2299	0
    Cd(f):	-35.2307	-0.615718	-34.615	0
    Cd(r):	-35.2309	-0.615984	-34.615	0
    Cl:	0.517272	0.000147401	0.517125	0
    Cl(f):	0.258613	2.5844e-05	0.258587	0
    Cl(r):	0.258659	0.000121557	0.258537	0
    CmPitch:	-2.28857e-05	-4.78563e-05	2.49706e-05	0
    CmRoll:	0.000131187	0.00013315	-1.96338e-06	0
    CmYaw:	-0.000130513	-0.000147217	1.67039e-05	0
    Cs:	0.632946	-0.000134629	0.633081	0
    Cs(f):	0.316343	-0.000214531	0.316557	0
    Cs(r):	0.316604	7.99024e-05	0.316524	0

Time = 24

smoothSolver:  Solving for Ux, Initial residual = 0.0146533, Final residual = 0.000176362, No Iterations 1
smoothSolver:  Solving for Uy, Initial residual = 0.0089181, Final residual = 0.000106457, No Iterations 1
smoothSolver:  Solving for Uz, Initial residual = 0.0133797, Final residual = 0.000158061, No Iterations 1
GAMG:  Solving for p, Initial residual = 0.16873, Final residual = 0.00822817, No Iterations 3
time step continuity errors : sum local = 9.61911e-05, global = 1.47377e-05, cumulative = -5.35022e-05
smoothSolver:  Solving for omega, Initial residual = 0.0211248, Final residual = 0.000197861, No Iterations 1
smoothSolver:  Solving for k, Initial residual = 0.0261265, Final residual = 0.000243561, No Iterations 1
smoothSolver:  Solving for ReThetat, Initial residual = 0.0357679, Final residual = 1.4356e-08, No Iterations 1
smoothSolver:  Solving for gammaInt, Initial residual = 0.0794366, Final residual = 0.0718907, No Iterations 100
ExecutionTime = 56.29 s  ClockTime = 57 s

forceCoeffs forceCoeffs write:
    Coefficient	Total	Pressure	Viscous	Internal
    Cd:	-56.7915	-1.22153	-55.57	0
    Cd(f):	-28.3957	-0.610651	-27.785	0
    Cd(r):	-28.3959	-0.610875	-27.785	0
    Cl:	0.667751	0.000204601	0.667547	0
    Cl(f):	0.333896	9.4378e-05	0.333802	0
    Cl(r):	0.333855	0.000110223	0.333745	0
    CmPitch:	2.05212e-05	-7.9226e-06	2.84439e-05	0
    CmRoll:	0.000109531	0.00011219	-2.65955e-06	0
    CmYaw:	-0.000337952	-0.000343831	5.87925e-06	0
    Cs:	0.635856	-5.20112e-05	0.635908	0
    Cs(f):	0.31759	-0.000369837	0.31796	0
    Cs(r):	0.318266	0.000317826	0.317948	0

Time = 25

smoothSolver:  Solving for Ux, Initial residual = 0.0143097, Final residual = 0.000172472, No Iterations 1
smoothSolver:  Solving for Uy, Initial residual = 0.00874051, Final residual = 0.000104216, No Iterations 1
smoothSolver:  Solving for Uz, Initial residual = 0.0127297, Final residual = 0.000150693, No Iterations 1
GAMG:  Solving for p, Initial residual = 0.181709, Final residual = 0.0165132, No Iterations 2
time step continuity errors : sum local = 0.000158467, global = 3.12085e-05, cumulative = -2.22937e-05
smoothSolver:  Solving for omega, Initial residual = 0.020139, Final residual = 0.000189353, No Iterations 1
smoothSolver:  Solving for k, Initial residual = 0.0248345, Final residual = 0.000232411, No Iterations 1
smoothSolver:  Solving for ReThetat, Initial residual = 0.0336279, Final residual = 1.34779e-08, No Iterations 1
smoothSolver:  Solving for gammaInt, Initial residual = 0.0776362, Final residual = 0.0703568, No Iterations 100
ExecutionTime = 58.59 s  ClockTime = 59 s

forceCoeffs forceCoeffs write:
    Coefficient	Total	Pressure	Viscous	Internal
    Cd:	-40.8129	-1.20841	-39.6045	0
    Cd(f):	-20.4064	-0.604145	-19.8023	0
    Cd(r):	-20.4065	-0.604264	-19.8022	0
    Cl:	0.561444	0.000257228	0.561187	0
    Cl(f):	0.280779	0.000158184	0.280621	0
    Cl(r):	0.280665	9.90436e-05	0.280566	0
    CmPitch:	5.68164e-05	2.95703e-05	2.72461e-05	0
    CmRoll:	5.73016e-05	5.97372e-05	-2.4356e-06	0
    CmYaw:	-0.000397904	-0.000404282	6.37717e-06	0
    Cs:	0.537634	-3.69027e-07	0.537634	0
    Cs(f):	0.268419	-0.000404466	0.268823	0
    Cs(r):	0.269215	0.000404097	0.268811	0

Time = 26

smoothSolver:  Solving for Ux, Initial residual = 0.0129233, Final residual = 0.000154964, No Iterations 1
smoothSolver:  Solving for Uy, Initial residual = 0.00776293, Final residual = 9.1655e-05, No Iterations 1
smoothSolver:  Solving for Uz, Initial residual = 0.0112284, Final residual = 0.000131246, No Iterations 1
GAMG:  Solving for p, Initial residual = 0.11492, Final residual = 0.0112231, No Iterations 2
time step continuity errors : sum local = 0.000151621, global = 1.37814e-05, cumulative = -8.5123e-06
smoothSolver:  Solving for omega, Initial residual = 0.019232, Final residual = 0.000181503, No Iterations 1
smoothSolver:  Solving for k, Initial residual = 0.0236471, Final residual = 0.000222137, No Iterations 1
smoothSolver:  Solving for ReThetat, Initial residual = 0.0317347, Final residual = 1.27242e-08, No Iterations 1
smoothSolver:  Solving for gammaInt, Initial residual = 0.076268, Final residual = 0.0692666, No Iterations 100
ExecutionTime = 60.82 s  ClockTime = 61 s

forceCoeffs forceCoeffs write:
    Coefficient	Total	Pressure	Viscous	Internal
    Cd:	-26.0914	-1.1933	-24.8981	0
    Cd(f):	-13.0457	-0.596648	-12.449	0
    Cd(r):	-13.0457	-0.596652	-12.449	0
    Cl:	0.344561	0.00029325	0.344268	0
    Cl(f):	0.172352	0.000194748	0.172157	0
    Cl(r):	0.172209	9.85017e-05	0.172111	0
    CmPitch:	7.12269e-05	4.81231e-05	2.31039e-05	0
    CmRoll:	2.37141e-07	1.8355e-06	-1.59836e-06	0
    CmYaw:	-0.000314684	-0.000331331	1.66469e-05	0
    Cs:	0.25454	-7.0381e-07	0.254541	0
    Cs(f):	0.126956	-0.000331683	0.127287	0
    Cs(r):	0.127585	0.000330979	0.127254	0

Time = 27

smoothSolver:  Solving for Ux, Initial residual = 0.0103734, Final residual = 0.000122597, No Iterations 1
smoothSolver:  Solving for Uy, Initial residual = 0.0059981, Final residual = 6.9143e-05, No Iterations 1
smoothSolver:  Solving for Uz, Initial residual = 0.00890136, Final residual = 0.000101091, No Iterations 1
GAMG:  Solving for p, Initial residual = 0.0797238, Final residual = 0.00321349, No Iterations 3
time step continuity errors : sum local = 5.52746e-05, global = 1.01399e-05, cumulative = 1.62764e-06
smoothSolver:  Solving for omega, Initial residual = 0.018401, Final residual = 0.00017425, No Iterations 1
smoothSolver:  Solving for k, Initial residual = 0.0225544, Final residual = 0.000212674, No Iterations 1
smoothSolver:  Solving for ReThetat, Initial residual = 0.030052, Final residual = 1.20717e-08, No Iterations 1
smoothSolver:  Solving for gammaInt, Initial residual = 0.0746063, Final residual = 0.0672947, No Iterations 100
ExecutionTime = 63.04 s  ClockTime = 64 s

forceCoeffs forceCoeffs write:
    Coefficient	Total	Pressure	Viscous	Internal
    Cd:	-16.4555	-1.1774	-15.2781	0
    Cd(f):	-8.22778	-0.588735	-7.63905	0
    Cd(r):	-8.22771	-0.588666	-7.63905	0
    Cl:	0.0250347	0.000302773	0.0247319	0
    Cl(f):	0.0125756	0.000191167	0.0123844	0
    Cl(r):	0.0124591	0.000111606	0.0123475	0
    CmPitch:	5.82556e-05	3.9781e-05	1.84746e-05	0
    CmRoll:	-3.53527e-05	-3.47289e-05	-6.23764e-07	0
    CmYaw:	-9.98045e-05	-0.000135244	3.54398e-05	0
    Cs:	-0.102924	-6.12253e-05	-0.102863	0
    Cs(f):	-0.0515618	-0.000165857	-0.051396	0
    Cs(r):	-0.0513622	0.000104632	-0.0514669	0

Time = 28

smoothSolver:  Solving for Ux, Initial residual = 0.00781576, Final residual = 9.0895e-05, No Iterations 1
smoothSolver:  Solving for Uy, Initial residual = 0.00443579, Final residual = 4.92543e-05, No Iterations 1
smoothSolver:  Solving for Uz, Initial residual = 0.00694247, Final residual = 7.68807e-05, No Iterations 1
GAMG:  Solving for p, Initial residual = 0.0631422, Final residual = 0.0028969, No Iterations 3
time step continuity errors : sum local = 5.5549e-05, global = 1.58547e-06, cumulative = 3.21311e-06
smoothSolver:  Solving for omega, Initial residual = 0.0176304, Final residual = 0.000167489, No Iterations 1
smoothSolver:  Solving for k, Initial residual = 0.0215479, Final residual = 0.000203945, No Iterations 1
smoothSolver:  Solving for ReThetat, Initial residual = 0.0285456, Final residual = 1.14982e-08, No Iterations 1
smoothSolver:  Solving for gammaInt, Initial residual = 0.0735209, Final residual = 0.0661983, No Iterations 100
ExecutionTime = 65.24 s  ClockTime = 66 s

forceCoeffs forceCoeffs write:
    Coefficient	Total	Pressure	Viscous	Internal
    Cd:	-14.8325	-1.16225	-13.6703	0
    Cd(f):	-7.41633	-0.581178	-6.83515	0
    Cd(r):	-7.41622	-0.581074	-6.83515	0
    Cl:	-0.214393	0.000287104	-0.21468	0
    Cl(f):	-0.10716	0.000165236	-0.107325	0
    Cl(r):	-0.107233	0.000121869	-0.107355	0
    CmPitch:	3.67269e-05	2.16833e-05	1.50436e-05	0
    CmRoll:	-5.18445e-05	-5.19159e-05	7.13882e-08	0
    CmYaw:	9.85881e-05	4.08254e-05	5.77627e-05	0
    Cs:	-0.302559	-0.000155774	-0.302404	0
    Cs(f):	-0.151181	-3.70616e-05	-0.151144	0
    Cs(r):	-0.151378	-0.000118712	-0.15126	0

Time = 29

smoothSolver:  Solving for Ux, Initial residual = 0.0073112, Final residual = 8.53942e-05, No Iterations 1
smoothSolver:  Solving for Uy, Initial residual = 0.00438922, Final residual = 4.97523e-05, No Iterations 1
smoothSolver:  Solving for Uz, Initial residual = 0.00671292, Final residual = 7.52205e-05, No Iterations 1
GAMG:  Solving for p, Initial residual = 0.0609787, Final residual = 0.00310057, No Iterations 3
time step continuity errors : sum local = 5.60037e-05, global = -5.92313e-06, cumulative = -2.71002e-06
smoothSolver:  Solving for omega, Initial residual = 0.0169108, Final residual = 0.000161181, No Iterations 1
smoothSolver:  Solving for k, Initial residual = 0.0206248, Final residual = 0.000195877, No Iterations 1
smoothSolver:  Solving for ReThetat, Initial residual = 0.0271882, Final residual = 1.09881e-08, No Iterations 1
smoothSolver:  Solving for gammaInt, Initial residual = 0.0721673, Final residual = 0.0647103, No Iterations 100
ExecutionTime = 67.56 s  ClockTime = 68 s

forceCoeffs forceCoeffs write:
    Coefficient	Total	Pressure	Viscous	Internal
    Cd:	-19.1873	-1.14885	-18.0384	0
    Cd(f):	-9.59368	-0.574476	-9.0192	0
    Cd(r):	-9.59358	-0.574377	-9.0192	0
    Cl:	-0.320081	0.000256237	-0.320337	0
    Cl(f):	-0.160026	0.000128077	-0.160154	0
    Cl(r):	-0.160055	0.00012816	-0.160183	0
    CmPitch:	1.42361e-05	-4.17484e-08	1.42778e-05	0
    CmRoll:	-4.90746e-05	-4.93788e-05	3.04231e-07	0
    CmYaw:	0.000228252	0.000152915	7.53364e-05	0
    Cs:	-0.330924	-0.000247699	-0.330676	0
    Cs(f):	-0.165234	2.90658e-05	-0.165263	0
    Cs(r):	-0.16569	-0.000276765	-0.165413	0

Time = 30

smoothSolver:  Solving for Ux, Initial residual = 0.00711106, Final residual = 8.35866e-05, No Iterations 1
smoothSolver:  Solving for Uy, Initial residual = 0.00432299, Final residual = 4.93397e-05, No Iterations 1
smoothSolver:  Solving for Uz, Initial residual = 0.00662241, Final residual = 7.50839e-05, No Iterations 1
GAMG:  Solving for p, Initial residual = 0.0659416, Final residual = 0.00640483, No Iterations 2
time step continuity errors : sum local = 9.76122e-05, global = -2.20288e-05, cumulative = -2.47388e-05
smoothSolver:  Solving for omega, Initial residual = 0.0162385, Final residual = 0.000155294, No Iterations 1
smoothSolver:  Solving for k, Initial residual = 0.0197694, Final residual = 0.000188372, No Iterations 1
smoothSolver:  Solving for ReThetat, Initial residual = 0.0259573, Final residual = 1.05295e-08, No Iterations 1
smoothSolver:  Solving for gammaInt, Initial residual = 0.0708835, Final residual = 0.0639112, No Iterations 100
ExecutionTime = 69.76 s  ClockTime = 70 s

forceCoeffs forceCoeffs write:
    Coefficient	Total	Pressure	Viscous	Internal
    Cd:	-25.4924	-1.13726	-24.3551	0
    Cd(f):	-12.7462	-0.568655	-12.1776	0
    Cd(r):	-12.7462	-0.568604	-12.1776	0
    Cl:	-0.294412	0.000223433	-0.294635	0
    Cl(f):	-0.147219	8.28089e-05	-0.147301	0
    Cl(r):	-0.147193	0.000140624	-0.147334	0
    CmPitch:	-1.2856e-05	-2.89077e-05	1.60518e-05	0
    CmRoll:	-2.53367e-05	-2.54546e-05	1.17916e-07	0
    CmYaw:	0.000293311	0.00020702	8.62909e-05	0
    Cs:	-0.281888	-0.000322865	-0.281565	0
    Cs(f):	-0.140651	4.55875e-05	-0.140696	0
    Cs(r):	-0.141237	-0.000368452	-0.140869	0

Time = 31

smoothSolver:  Solving for Ux, Initial residual = 0.00655207, Final residual = 7.67696e-05, No Iterations 1
smoothSolver:  Solving for Uy, Initial residual = 0.00398587, Final residual = 4.52168e-05, No Iterations 1
smoothSolver:  Solving for Uz, Initial residual = 0.00619455, Final residual = 7.01093e-05, No Iterations 1
GAMG:  Solving for p, Initial residual = 0.0714955, Final residual = 0.00322077, No Iterations 3
time step continuity errors : sum local = 4.14065e-05, global = -1.03058e-05, cumulative = -3.50446e-05
smoothSolver:  Solving for omega, Initial residual = 0.0156106, Final residual = 0.000149812, No Iterations 1
smoothSolver:  Solving for k, Initial residual = 0.0189731, Final residual = 0.000181383, No Iterations 1
smoothSolver:  Solving for ReThetat, Initial residual = 0.0248356, Final residual = 1.01135e-08, No Iterations 1
smoothSolver:  Solving for gammaInt, Initial residual = 0.0696934, Final residual = 0.062844, No Iterations 100
ExecutionTime = 71.97 s  ClockTime = 73 s

forceCoeffs forceCoeffs write:
    Coefficient	Total	Pressure	Viscous	Internal
    Cd:	-33.4859	-1.1274	-32.3585	0
    Cd(f):	-16.7429	-0.563704	-16.1792	0
    Cd(r):	-16.7429	-0.563692	-16.1792	0
    Cl:	-0.209013	0.00019347	-0.209207	0
    Cl(f):	-0.104514	7.00042e-05	-0.104584	0
    Cl(r):	-0.104499	0.000123466	-0.104623	0
    CmPitch:	-7.40077e-06	-2.67307e-05	1.933e-05	0
    CmRoll:	-5.80257e-06	-5.52243e-06	-2.80134e-07	0
    CmYaw:	0.000238985	0.000147313	9.16723e-05	0
    Cs:	-0.0308534	-0.000360028	-0.0304934	0
    Cs(f):	-0.0151877	-3.27015e-05	-0.015155	0
    Cs(r):	-0.0156657	-0.000327327	-0.0153383	0

Time = 32

smoothSolver:  Solving for Ux, Initial residual = 0.00571091, Final residual = 6.63474e-05, No Iterations 1
smoothSolver:  Solving for Uy, Initial residual = 0.00345792, Final residual = 3.88591e-05, No Iterations 1
smoothSolver:  Solving for Uz, Initial residual = 0.00546809, Final residual = 6.17833e-05, No Iterations 1
GAMG:  Solving for p, Initial residual = 0.0895289, Final residual = 0.00377969, No Iterations 3
time step continuity errors : sum local = 3.40521e-05, global = -7.73678e-06, cumulative = -4.27814e-05
smoothSolver:  Solving for omega, Initial residual = 0.015028, Final residual = 0.000144769, No Iterations 1
smoothSolver:  Solving for k, Initial residual = 0.018229, Final residual = 0.000174836, No Iterations 1
smoothSolver:  Solving for ReThetat, Initial residual = 0.0238083, Final residual = 9.73479e-09, No Iterations 1
smoothSolver:  Solving for gammaInt, Initial residual = 0.0686186, Final residual = 0.0617176, No Iterations 100
ExecutionTime = 74.31 s  ClockTime = 75 s

forceCoeffs forceCoeffs write:
    Coefficient	Total	Pressure	Viscous	Internal
    Cd:	-39.413	-1.11877	-38.2943	0
    Cd(f):	-19.7065	-0.559375	-19.1471	0
    Cd(r):	-19.7065	-0.559398	-19.1471	0
    Cl:	-0.0920356	0.000170773	-0.0922064	0
    Cl(f):	-0.046012	6.81454e-05	-0.0460801	0
    Cl(r):	-0.0460236	0.000102627	-0.0461262	0
    CmPitch:	5.80775e-06	-1.7241e-05	2.30488e-05	0
    CmRoll:	1.05801e-05	1.12572e-05	-6.77106e-07	0
    CmYaw:	0.00014404	5.31768e-05	9.08632e-05	0
    Cs:	0.19372	-0.000352699	0.194072	0
    Cs(f):	0.0970039	-0.000123173	0.0971271	0
    Cs(r):	0.0967158	-0.000229526	0.0969454	0

Time = 33

smoothSolver:  Solving for Ux, Initial residual = 0.00570135, Final residual = 6.68463e-05, No Iterations 1
smoothSolver:  Solving for Uy, Initial residual = 0.00348618, Final residual = 3.93952e-05, No Iterations 1
smoothSolver:  Solving for Uz, Initial residual = 0.00544178, Final residual = 6.25289e-05, No Iterations 1
GAMG:  Solving for p, Initial residual = 0.0941363, Final residual = 0.00922466, No Iterations 2
time step continuity errors : sum local = 7.15036e-05, global = -1.53068e-06, cumulative = -4.43121e-05
smoothSolver:  Solving for omega, Initial residual = 0.0144858, Final residual = 0.000140027, No Iterations 1
smoothSolver:  Solving for k, Initial residual = 0.0175329, Final residual = 0.000168727, No Iterations 1
smoothSolver:  Solving for ReThetat, Initial residual = 0.0228639, Final residual = 9.3892e-09, No Iterations 1
smoothSolver:  Solving for gammaInt, Initial residual = 0.0678378, Final residual = 0.0603985, No Iterations 100
ExecutionTime = 76.58 s  ClockTime = 77 s

forceCoeffs forceCoeffs write:
    Coefficient	Total	Pressure	Viscous	Internal
    Cd:	-41.9159	-1.11059	-40.8053	0
    Cd(f):	-20.9579	-0.555272	-20.4027	0
    Cd(r):	-20.958	-0.555322	-20.4027	0
    Cl:	-0.0201585	0.000152671	-0.0203111	0
    Cl(f):	-0.0100686	6.07206e-05	-0.0101294	0
    Cl(r):	-0.0100898	9.19502e-05	-0.0101818	0
    CmPitch:	1.05826e-05	-1.56148e-05	2.61974e-05	0
    CmRoll:	2.41108e-05	2.50623e-05	-9.51511e-07	0
    CmYaw:	7.45549e-05	-1.42343e-05	8.87893e-05	0
    Cs:	0.299213	-0.000324654	0.299538	0
    Cs(f):	0.149681	-0.000176561	0.149858	0
    Cs(r):	0.149532	-0.000148093	0.14968	0

Time = 34

smoothSolver:  Solving for Ux, Initial residual = 0.0059429, Final residual = 7.03311e-05, No Iterations 1
smoothSolver:  Solving for Uy, Initial residual = 0.0035808, Final residual = 4.09399e-05, No Iterations 1
smoothSolver:  Solving for Uz, Initial residual = 0.00554862, Final residual = 6.43076e-05, No Iterations 1
GAMG:  Solving for p, Initial residual = 0.087788, Final residual = 0.0085065, No Iterations 2
time step continuity errors : sum local = 6.73999e-05, global = 4.63513e-06, cumulative = -3.96769e-05
smoothSolver:  Solving for omega, Initial residual = 0.0139772, Final residual = 0.000135545, No Iterations 1
smoothSolver:  Solving for k, Initial residual = 0.0168858, Final residual = 0.000163097, No Iterations 1
smoothSolver:  Solving for ReThetat, Initial residual = 0.0219918, Final residual = 9.07329e-09, No Iterations 1
smoothSolver:  Solving for gammaInt, Initial residual = 0.0660922, Final residual = 0.0594074, No Iterations 100
ExecutionTime = 78.85 s  ClockTime = 79 s

forceCoeffs forceCoeffs write:
    Coefficient	Total	Pressure	Viscous	Internal
    Cd:	-42.2808	-1.10245	-41.1784	0
    Cd(f):	-21.1404	-0.551199	-20.5892	0
    Cd(r):	-21.1404	-0.55125	-20.5892	0
    Cl:	0.0280484	0.000138238	0.0279102	0
    Cl(f):	0.014047	6.38829e-05	0.0139831	0
    Cl(r):	0.0140015	7.43549e-05	0.0139271	0
    CmPitch:	2.27304e-05	-5.23601e-06	2.79664e-05	0
    CmRoll:	2.47589e-05	2.57964e-05	-1.03754e-06	0
    CmYaw:	1.51308e-05	-7.32255e-05	8.83563e-05	0
    Cs:	0.32699	-0.000293367	0.327284	0
    Cs(f):	0.16351	-0.000219909	0.16373	0
    Cs(r):	0.16348	-7.3458e-05	0.163554	0

Time = 35

smoothSolver:  Solving for Ux, Initial residual = 0.00593521, Final residual = 7.0455e-05, No Iterations 1
smoothSolver:  Solving for Uy, Initial residual = 0.00354761, Final residual = 4.07156e-05, No Iterations 1
smoothSolver:  Solving for Uz, Initial residual = 0.00543135, Final residual = 6.30538e-05, No Iterations 1
GAMG:  Solving for p, Initial residual = 0.0861856, Final residual = 0.00785128, No Iterations 2
time step continuity errors : sum local = 5.96689e-05, global = 9.14639e-06, cumulative = -3.05306e-05
smoothSolver:  Solving for omega, Initial residual = 0.0134976, Final residual = 0.000131284, No Iterations 1
smoothSolver:  Solving for k, Initial residual = 0.0162811, Final residual = 0.000157784, No Iterations 1
smoothSolver:  Solving for ReThetat, Initial residual = 0.0211837, Final residual = 8.78335e-09, No Iterations 1
smoothSolver:  Solving for gammaInt, Initial residual = 0.0657699, Final residual = 0.0586001, No Iterations 100
ExecutionTime = 81.1 s  ClockTime = 82 s

forceCoeffs forceCoeffs write:
    Coefficient	Total	Pressure	Viscous	Internal
    Cd:	-41.3928	-1.09424	-40.2985	0
    Cd(f):	-20.6964	-0.547103	-20.1493	0
    Cd(r):	-20.6964	-0.54714	-20.1493	0
    Cl:	0.0526673	0.000128211	0.0525391	0
    Cl(f):	0.026368	7.00445e-05	0.026298	0
    Cl(r):	0.0262993	5.81661e-05	0.0262411	0
    CmPitch:	3.43636e-05	5.93922e-06	2.84244e-05	0
    CmRoll:	1.75106e-05	1.84298e-05	-9.19234e-07	0
    CmYaw:	-2.09189e-05	-0.000109722	8.88027e-05	0
    Cs:	0.277021	-0.000266301	0.277288	0
    Cs(f):	0.13849	-0.000242872	0.138733	0
    Cs(r):	0.138532	-2.34286e-05	0.138555	0

Time = 36

smoothSolver:  Solving for Ux, Initial residual = 0.00579429, Final residual = 6.90344e-05, No Iterations 1
smoothSolver:  Solving for Uy, Initial residual = 0.00342124, Final residual = 3.90201e-05, No Iterations 1
smoothSolver:  Solving for Uz, Initial residual = 0.00518476, Final residual = 6.04863e-05, No Iterations 1
GAMG:  Solving for p, Initial residual = 0.0659463, Final residual = 0.00594775, No Iterations 2
time step continuity errors : sum local = 5.37518e-05, global = 7.80271e-06, cumulative = -2.27278e-05
smoothSolver:  Solving for omega, Initial residual = 0.0130469, Final residual = 0.000127237, No Iterations 1
smoothSolver:  Solving for k, Initial residual = 0.0157125, Final residual = 0.000152735, No Iterations 1
smoothSolver:  Solving for ReThetat, Initial residual = 0.020426, Final residual = 8.51384e-09, No Iterations 1
smoothSolver:  Solving for gammaInt, Initial residual = 0.0644143, Final residual = 0.0575198, No Iterations 100
ExecutionTime = 83.27 s  ClockTime = 84 s

forceCoeffs forceCoeffs write:
    Coefficient	Total	Pressure	Viscous	Internal
    Cd:	-40.0471	-1.08601	-38.9611	0
    Cd(f):	-20.0236	-0.542995	-19.4806	0
    Cd(r):	-20.0236	-0.54301	-19.4806	0
    Cl:	0.0557325	0.000122348	0.0556101	0
    Cl(f):	0.0279076	7.46705e-05	0.0278329	0
    Cl(r):	0.0278249	4.76775e-05	0.0277772	0
    CmPitch:	4.13397e-05	1.34965e-05	2.78432e-05	0
    CmRoll:	6.63412e-06	7.29626e-06	-6.62142e-07	0
    CmYaw:	-2.37182e-05	-0.000114508	9.07899e-05	0
    Cs:	0.175811	-0.000253332	0.176064	0
    Cs(f):	0.0878817	-0.000241174	0.0881228	0
    Cs(r):	0.0879291	-1.21579e-05	0.0879413	0

Time = 37

smoothSolver:  Solving for Ux, Initial residual = 0.00555599, Final residual = 6.60624e-05, No Iterations 1
smoothSolver:  Solving for Uy, Initial residual = 0.0031716, Final residual = 3.58619e-05, No Iterations 1
smoothSolver:  Solving for Uz, Initial residual = 0.00488732, Final residual = 5.70402e-05, No Iterations 1
GAMG:  Solving for p, Initial residual = 0.047899, Final residual = 0.00459928, No Iterations 2
time step continuity errors : sum local = 5.13322e-05, global = 6.03517e-06, cumulative = -1.66927e-05
smoothSolver:  Solving for omega, Initial residual = 0.0126236, Final residual = 0.000123388, No Iterations 1
smoothSolver:  Solving for k, Initial residual = 0.015175, Final residual = 0.000147931, No Iterations 1
smoothSolver:  Solving for ReThetat, Initial residual = 0.0197116, Final residual = 8.26142e-09, No Iterations 1
smoothSolver:  Solving for gammaInt, Initial residual = 0.0632744, Final residual = 0.0567772, No Iterations 100
ExecutionTime = 85.42 s  ClockTime = 86 s

forceCoeffs forceCoeffs write:
    Coefficient	Total	Pressure	Viscous	Internal
    Cd:	-38.9879	-1.07782	-37.91	0
    Cd(f):	-19.4939	-0.538913	-18.955	0
    Cd(r):	-19.4939	-0.538908	-18.955	0
    Cl:	0.0384582	0.000119416	0.0383388	0
    Cl(f):	0.0192712	7.49081e-05	0.0191963	0
    Cl(r):	0.0191871	4.45076e-05	0.0191426	0
    CmPitch:	4.20572e-05	1.52003e-05	2.6857e-05	0
    CmRoll:	-3.2136e-06	-2.86655e-06	-3.47054e-07	0
    CmYaw:	-2.35766e-07	-9.44512e-05	9.42155e-05	0
    Cs:	0.0662905	-0.00025745	0.066548	0
    Cs(f):	0.033145	-0.000223176	0.0333682	0
    Cs(r):	0.0331455	-3.42737e-05	0.0331798	0

Time = 38

smoothSolver:  Solving for Ux, Initial residual = 0.00517128, Final residual = 6.10664e-05, No Iterations 1
smoothSolver:  Solving for Uy, Initial residual = 0.00287272, Final residual = 3.20106e-05, No Iterations 1
smoothSolver:  Solving for Uz, Initial residual = 0.00454338, Final residual = 5.27966e-05, No Iterations 1
GAMG:  Solving for p, Initial residual = 0.0378073, Final residual = 0.00361924, No Iterations 2
time step continuity errors : sum local = 4.69653e-05, global = 6.10063e-06, cumulative = -1.0592e-05
smoothSolver:  Solving for omega, Initial residual = 0.0122258, Final residual = 0.000119755, No Iterations 1
smoothSolver:  Solving for k, Initial residual = 0.0146692, Final residual = 0.000143382, No Iterations 1
smoothSolver:  Solving for ReThetat, Initial residual = 0.0190453, Final residual = 8.02676e-09, No Iterations 1
smoothSolver:  Solving for gammaInt, Initial residual = 0.0745853, Final residual = 0.0667744, No Iterations 100
ExecutionTime = 87.59 s  ClockTime = 88 s

forceCoeffs forceCoeffs write:
    Coefficient	Total	Pressure	Viscous	Internal
    Cd:	-38.651	-1.06981	-37.5812	0
    Cd(f):	-19.3255	-0.534915	-18.7906	0
    Cd(r):	-19.3255	-0.534898	-18.7906	0
    Cl:	0.00793127	0.000117288	0.00781398	0
    Cl(f):	0.00400332	7.01777e-05	0.00393314	0
    Cl(r):	0.00392795	4.71108e-05	0.00388084	0
    CmPitch:	3.76822e-05	1.15335e-05	2.61487e-05	0
    CmRoll:	-8.85133e-06	-8.80741e-06	-4.39201e-08	0
    CmYaw:	3.95809e-05	-5.88235e-05	9.84044e-05	0
    Cs:	-0.012524	-0.000275316	-0.0122486	0
    Cs(f):	-0.00622239	-0.000196481	-0.00602591	0
    Cs(r):	-0.00630156	-7.88343e-05	-0.00622272	0

Time = 39

smoothSolver:  Solving for Ux, Initial residual = 0.00471808, Final residual = 5.5273e-05, No Iterations 1
smoothSolver:  Solving for Uy, Initial residual = 0.00261981, Final residual = 2.87552e-05, No Iterations 1
smoothSolver:  Solving for Uz, Initial residual = 0.00424173, Final residual = 4.9154e-05, No Iterations 1
GAMG:  Solving for p, Initial residual = 0.0332985, Final residual = 0.00324997, No Iterations 2
time step continuity errors : sum local = 4.5494e-05, global = 4.27365e-06, cumulative = -6.31839e-06
smoothSolver:  Solving for omega, Initial residual = 0.0118489, Final residual = 0.00011631, No Iterations 1
smoothSolver:  Solving for k, Initial residual = 0.0141952, Final residual = 0.000139053, No Iterations 1
smoothSolver:  Solving for ReThetat, Initial residual = 0.0184225, Final residual = 7.80657e-09, No Iterations 1
smoothSolver:  Solving for gammaInt, Initial residual = 0.0735098, Final residual = 0.0656576, No Iterations 100
ExecutionTime = 89.74 s  ClockTime = 90 s

forceCoeffs forceCoeffs write:
    Coefficient	Total	Pressure	Viscous	Internal
    Cd:	-39.0648	-1.06207	-38.0027	0
    Cd(f):	-19.5324	-0.531043	-19.0014	0
    Cd(r):	-19.5324	-0.531024	-19.0014	0
    Cl:	-0.0249279	0.000114395	-0.0250423	0
    Cl(f):	-0.0124332	6.18421e-05	-0.012495	0
    Cl(r):	-0.0124947	5.25532e-05	-0.0125473	0
    CmPitch:	3.07635e-05	4.64444e-06	2.6119e-05	0
    CmRoll:	-9.46829e-06	-9.68676e-06	2.18465e-07	0
    CmYaw:	8.00307e-05	-2.24841e-05	0.000102515	0
    Cs:	-0.0426981	-0.000299278	-0.0423988	0
    Cs(f):	-0.021269	-0.000172123	-0.0210969	0
    Cs(r):	-0.0214291	-0.000127155	-0.0213019	0

Time = 40

smoothSolver:  Solving for Ux, Initial residual = 0.00428316, Final residual = 4.9696e-05, No Iterations 1
smoothSolver:  Solving for Uy, Initial residual = 0.00248757, Final residual = 2.71466e-05, No Iterations 1
smoothSolver:  Solving for Uz, Initial residual = 0.00399825, Final residual = 4.62117e-05, No Iterations 1
GAMG:  Solving for p, Initial residual = 0.0313965, Final residual = 0.00153615, No Iterations 3
time step continuity errors : sum local = 2.18958e-05, global = -1.0373e-06, cumulative = -7.35569e-06
smoothSolver:  Solving for omega, Initial residual = 0.0114905, Final residual = 0.000113016, No Iterations 1
smoothSolver:  Solving for k, Initial residual = 0.0137472, Final residual = 0.000134918, No Iterations 1
smoothSolver:  Solving for ReThetat, Initial residual = 0.0178382, Final residual = 7.59827e-09, No Iterations 1
smoothSolver:  Solving for gammaInt, Initial residual = 0.0730587, Final residual = 0.0649365, No Iterations 100
ExecutionTime = 92 s  ClockTime = 93 s

forceCoeffs forceCoeffs write:
    Coefficient	Total	Pressure	Viscous	Internal
    Cd:	-40.1847	-1.0546	-39.1301	0
    Cd(f):	-20.0923	-0.527309	-19.565	0
    Cd(r):	-20.0923	-0.527291	-19.565	0
    Cl:	-0.0547911	0.000108933	-0.0549	0
    Cl(f):	-0.0273649	5.8142e-05	-0.0274231	0
    Cl(r):	-0.0274261	5.07914e-05	-0.0274769	0
    CmPitch:	3.05895e-05	3.67532e-06	2.69142e-05	0
    CmRoll:	-8.10341e-06	-8.56053e-06	4.57116e-07	0
    CmYaw:	9.7473e-05	-8.43605e-06	0.000105909	0
    Cs:	0.00250734	-0.000316966	0.0028243	0
    Cs(f):	0.00135114	-0.000166919	0.00151806	0
    Cs(r):	0.0011562	-0.000150047	0.00130624	0

Time = 41

smoothSolver:  Solving for Ux, Initial residual = 0.00382533, Final residual = 4.39247e-05, No Iterations 1
smoothSolver:  Solving for Uy, Initial residual = 0.00242381, Final residual = 2.64397e-05, No Iterations 1
smoothSolver:  Solving for Uz, Initial residual = 0.00379772, Final residual = 4.36921e-05, No Iterations 1
GAMG:  Solving for p, Initial residual = 0.0304586, Final residual = 0.00278981, No Iterations 2
time step continuity errors : sum local = 3.83345e-05, global = -7.64344e-06, cumulative = -1.49991e-05
smoothSolver:  Solving for omega, Initial residual = 0.011151, Final residual = 0.000109874, No Iterations 1
smoothSolver:  Solving for k, Initial residual = 0.0133222, Final residual = 0.000130994, No Iterations 1
smoothSolver:  Solving for ReThetat, Initial residual = 0.0172881, Final residual = 7.40085e-09, No Iterations 1
smoothSolver:  Solving for gammaInt, Initial residual = 0.0721036, Final residual = 0.06457, No Iterations 100
ExecutionTime = 94.55 s  ClockTime = 95 s

forceCoeffs forceCoeffs write:
    Coefficient	Total	Pressure	Viscous	Internal
    Cd:	-41.4005	-1.04734	-40.3532	0
    Cd(f):	-20.7003	-0.523674	-20.1766	0
    Cd(r):	-20.7003	-0.523668	-20.1766	0
    Cl:	-0.068606	0.000100912	-0.0687069	0
    Cl(f):	-0.0342801	4.50122e-05	-0.0343251	0
    Cl(r):	-0.0343259	5.58993e-05	-0.0343818	0
    CmPitch:	2.28725e-05	-5.44357e-06	2.83161e-05	0
    CmRoll:	-2.37535e-06	-3.01901e-06	6.43657e-07	0
    CmYaw:	0.000117564	9.73314e-06	0.00010783	0
    Cs:	0.0334186	-0.000326687	0.0337452	0
    Cs(f):	0.0168268	-0.000153611	0.0169805	0
    Cs(r):	0.0165917	-0.000173077	0.0167648	0

Time = 42

smoothSolver:  Solving for Ux, Initial residual = 0.0036376, Final residual = 4.17101e-05, No Iterations 1
smoothSolver:  Solving for Uy, Initial residual = 0.0024188, Final residual = 2.65037e-05, No Iterations 1
smoothSolver:  Solving for Uz, Initial residual = 0.00371114, Final residual = 4.27356e-05, No Iterations 1
GAMG:  Solving for p, Initial residual = 0.0298395, Final residual = 0.00276096, No Iterations 2
time step continuity errors : sum local = 3.62739e-05, global = -1.06958e-05, cumulative = -2.56949e-05
smoothSolver:  Solving for omega, Initial residual = 0.0108313, Final residual = 0.00010692, No Iterations 1
smoothSolver:  Solving for k, Initial residual = 0.0129138, Final residual = 0.000127217, No Iterations 1
smoothSolver:  Solving for ReThetat, Initial residual = 0.0167693, Final residual = 7.21422e-09, No Iterations 1
smoothSolver:  Solving for gammaInt, Initial residual = 0.070549, Final residual = 0.0630661, No Iterations 100
ExecutionTime = 96.7 s  ClockTime = 97 s

forceCoeffs forceCoeffs write:
    Coefficient	Total	Pressure	Viscous	Internal
    Cd:	-42.788	-1.04026	-41.7478	0
    Cd(f):	-21.394	-0.520129	-20.8739	0
    Cd(r):	-21.394	-0.520135	-20.8739	0
    Cl:	-0.0720949	9.16867e-05	-0.0721866	0
    Cl(f):	-0.0360293	3.38598e-05	-0.0360631	0
    Cl(r):	-0.0360657	5.7827e-05	-0.0361235	0
    CmPitch:	1.81959e-05	-1.19836e-05	3.01795e-05	0
    CmRoll:	3.54821e-06	2.80002e-06	7.48184e-07	0
    CmYaw:	0.000124379	1.51543e-05	0.000109225	0
    Cs:	0.0776133	-0.000330993	0.0779443	0
    Cs(f):	0.038931	-0.000150342	0.0390814	0
    Cs(r):	0.0386823	-0.000180651	0.0388629	0

Time = 43

smoothSolver:  Solving for Ux, Initial residual = 0.00348986, Final residual = 4.00777e-05, No Iterations 1
smoothSolver:  Solving for Uy, Initial residual = 0.00241139, Final residual = 2.65959e-05, No Iterations 1
smoothSolver:  Solving for Uz, Initial residual = 0.00362561, Final residual = 4.1855e-05, No Iterations 1
GAMG:  Solving for p, Initial residual = 0.0299473, Final residual = 0.00293336, No Iterations 2
time step continuity errors : sum local = 3.5967e-05, global = -1.02725e-05, cumulative = -3.59675e-05
smoothSolver:  Solving for omega, Initial residual = 0.0105292, Final residual = 0.000104129, No Iterations 1
smoothSolver:  Solving for k, Initial residual = 0.0125261, Final residual = 0.00012362, No Iterations 1
smoothSolver:  Solving for ReThetat, Initial residual = 0.0162797, Final residual = 7.03789e-09, No Iterations 1
smoothSolver:  Solving for gammaInt, Initial residual = 0.0699581, Final residual = 0.0623722, No Iterations 100
ExecutionTime = 98.87 s  ClockTime = 100 s

forceCoeffs forceCoeffs write:
    Coefficient	Total	Pressure	Viscous	Internal
    Cd:	-44.1431	-1.03337	-43.1098	0
    Cd(f):	-22.0716	-0.516678	-21.5549	0
    Cd(r):	-22.0716	-0.516693	-21.5549	0
    Cl:	-0.0673981	8.24237e-05	-0.0674805	0
    Cl(f):	-0.0336816	2.65457e-05	-0.0337082	0
    Cl(r):	-0.0337165	5.5878e-05	-0.0337724	0
    CmPitch:	1.74438e-05	-1.46662e-05	3.211e-05	0
    CmRoll:	8.19259e-06	7.38401e-06	8.0858e-07	0
    CmYaw:	0.000120749	1.09924e-05	0.000109757	0
    Cs:	0.120857	-0.000326744	0.121183	0
    Cs(f):	0.0605491	-0.00015238	0.0607014	0
    Cs(r):	0.0603076	-0.000174365	0.0604819	0

Time = 44

smoothSolver:  Solving for Ux, Initial residual = 0.00347662, Final residual = 4.00621e-05, No Iterations 1
smoothSolver:  Solving for Uy, Initial residual = 0.00240993, Final residual = 2.67463e-05, No Iterations 1
smoothSolver:  Solving for Uz, Initial residual = 0.00360336, Final residual = 4.16709e-05, No Iterations 1
GAMG:  Solving for p, Initial residual = 0.0308411, Final residual = 0.00295546, No Iterations 2
time step continuity errors : sum local = 3.34453e-05, global = -8.48539e-06, cumulative = -4.44529e-05
smoothSolver:  Solving for omega, Initial residual = 0.0102389, Final residual = 0.000101439, No Iterations 1
smoothSolver:  Solving for k, Initial residual = 0.0121584, Final residual = 0.000120188, No Iterations 1
smoothSolver:  Solving for ReThetat, Initial residual = 0.0158156, Final residual = 6.87117e-09, No Iterations 1
smoothSolver:  Solving for gammaInt, Initial residual = 0.0691643, Final residual = 0.0616823, No Iterations 100
ExecutionTime = 101.02 s  ClockTime = 102 s

forceCoeffs forceCoeffs write:
    Coefficient	Total	Pressure	Viscous	Internal
    Cd:	-45.2826	-1.02663	-44.2559	0
    Cd(f):	-22.6413	-0.513304	-22.128	0
    Cd(r):	-22.6413	-0.513324	-22.128	0
    Cl:	-0.0576192	7.44112e-05	-0.0576936	0
    Cl(f):	-0.028789	2.38748e-05	-0.0288129	0
    Cl(r):	-0.0288301	5.05364e-05	-0.0288807	0
    CmPitch:	2.05516e-05	-1.33308e-05	3.38824e-05	0
    CmRoll:	1.07177e-05	9.86481e-06	8.52876e-07	0
    CmYaw:	0.00011327	3.46217e-06	0.000109808	0
    Cs:	0.152191	-0.0003156	0.152507	0
    Cs(f):	0.076209	-0.000154338	0.0763633	0
    Cs(r):	0.0759824	-0.000161262	0.0761437	0

Time = 45

smoothSolver:  Solving for Ux, Initial residual = 0.00364934, Final residual = 4.22299e-05, No Iterations 1
smoothSolver:  Solving for Uy, Initial residual = 0.0024192, Final residual = 2.69747e-05, No Iterations 1
smoothSolver:  Solving for Uz, Initial residual = 0.00369156, Final residual = 4.26971e-05, No Iterations 1
GAMG:  Solving for p, Initial residual = 0.031513, Final residual = 0.00274335, No Iterations 2
time step continuity errors : sum local = 2.89787e-05, global = -6.05881e-06, cumulative = -5.05117e-05
smoothSolver:  Solving for omega, Initial residual = 0.00996077, Final residual = 9.88546e-05, No Iterations 1
smoothSolver:  Solving for k, Initial residual = 0.0118105, Final residual = 0.000116938, No Iterations 1
smoothSolver:  Solving for ReThetat, Initial residual = 0.0153753, Final residual = 6.71337e-09, No Iterations 1
smoothSolver:  Solving for gammaInt, Initial residual = 0.0683621, Final residual = 0.0605121, No Iterations 100
ExecutionTime = 103.19 s  ClockTime = 104 s

forceCoeffs forceCoeffs write:
    Coefficient	Total	Pressure	Viscous	Internal
    Cd:	-46.1324	-1.02	-45.1124	0
    Cd(f):	-23.0662	-0.509991	-22.5562	0
    Cd(r):	-23.0662	-0.510011	-22.5562	0
    Cl:	-0.0465209	6.86097e-05	-0.0465895	0
    Cl(f):	-0.0232345	2.49267e-05	-0.0232594	0
    Cl(r):	-0.0232865	4.3683e-05	-0.0233301	0
    CmPitch:	2.59976e-05	-9.37818e-06	3.53758e-05	0
    CmRoll:	1.09564e-05	1.00541e-05	9.02239e-07	0
    CmYaw:	0.000108002	-1.77914e-06	0.000109781	0
    Cs:	0.166668	-0.000300834	0.166968	0
    Cs(f):	0.0834418	-0.000152196	0.083594	0
    Cs(r):	0.0832258	-0.000148638	0.0833744	0

Time = 46

smoothSolver:  Solving for Ux, Initial residual = 0.0038625, Final residual = 4.48686e-05, No Iterations 1
smoothSolver:  Solving for Uy, Initial residual = 0.00242147, Final residual = 2.70418e-05, No Iterations 1
smoothSolver:  Solving for Uz, Initial residual = 0.00379526, Final residual = 4.39633e-05, No Iterations 1
GAMG:  Solving for p, Initial residual = 0.0307517, Final residual = 0.00271602, No Iterations 2
time step continuity errors : sum local = 2.761e-05, global = -2.59271e-06, cumulative = -5.31044e-05
smoothSolver:  Solving for omega, Initial residual = 0.00969655, Final residual = 9.63945e-05, No Iterations 1
smoothSolver:  Solving for k, Initial residual = 0.0114794, Final residual = 0.00011383, No Iterations 1
smoothSolver:  Solving for ReThetat, Initial residual = 0.0149574, Final residual = 6.56348e-09, No Iterations 1
smoothSolver:  Solving for gammaInt, Initial residual = 0.0672451, Final residual = 0.0602634, No Iterations 100
ExecutionTime = 105.34 s  ClockTime = 106 s

forceCoeffs forceCoeffs write:
    Coefficient	Total	Pressure	Viscous	Internal
    Cd:	-46.7379	-1.01348	-45.7245	0
    Cd(f):	-23.369	-0.506731	-22.8622	0
    Cd(r):	-23.369	-0.506748	-22.8622	0
    Cl:	-0.0365622	6.53999e-05	-0.0366276	0
    Cl(f):	-0.018249	2.83248e-05	-0.0182773	0
    Cl(r):	-0.0183132	3.70751e-05	-0.0183503	0
    CmPitch:	3.21135e-05	-4.37511e-06	3.64886e-05	0
    CmRoll:	9.39259e-06	8.42737e-06	9.65221e-07	0
    CmYaw:	0.000104839	-5.26187e-06	0.000110101	0
    Cs:	0.163663	-0.000286915	0.16395	0
    Cs(f):	0.0819364	-0.000148719	0.0820851	0
    Cs(r):	0.0817267	-0.000138196	0.0818649	0

Time = 47

smoothSolver:  Solving for Ux, Initial residual = 0.00400329, Final residual = 4.66841e-05, No Iterations 1
smoothSolver:  Solving for Uy, Initial residual = 0.0024315, Final residual = 2.72024e-05, No Iterations 1
smoothSolver:  Solving for Uz, Initial residual = 0.00386034, Final residual = 4.48237e-05, No Iterations 1
GAMG:  Solving for p, Initial residual = 0.0293615, Final residual = 0.00266105, No Iterations 2
time step continuity errors : sum local = 2.69584e-05, global = 2.04075e-06, cumulative = -5.10636e-05
smoothSolver:  Solving for omega, Initial residual = 0.00944576, Final residual = 9.40549e-05, No Iterations 1
smoothSolver:  Solving for k, Initial residual = 0.011161, Final residual = 0.000110843, No Iterations 1
smoothSolver:  Solving for ReThetat, Initial residual = 0.0145594, Final residual = 6.42084e-09, No Iterations 1
smoothSolver:  Solving for gammaInt, Initial residual = 0.0670352, Final residual = 0.0595237, No Iterations 100
ExecutionTime = 107.6 s  ClockTime = 109 s

forceCoeffs forceCoeffs write:
    Coefficient	Total	Pressure	Viscous	Internal
    Cd:	-47.1952	-1.00705	-46.1881	0
    Cd(f):	-23.5976	-0.503517	-23.0941	0
    Cd(r):	-23.5976	-0.503529	-23.0941	0
    Cl:	-0.0293884	6.47893e-05	-0.0294531	0
    Cl(f):	-0.0146566	3.2534e-05	-0.0146892	0
    Cl(r):	-0.0147317	3.22552e-05	-0.014764	0
    CmPitch:	3.75615e-05	1.39389e-07	3.74221e-05	0
    CmRoll:	7.14104e-06	6.09062e-06	1.05042e-06	0
    CmYaw:	0.000108719	-2.08206e-06	0.000110801	0
    Cs:	0.149608	-0.000274376	0.149882	0
    Cs(f):	0.0749127	-0.00013927	0.0750519	0
    Cs(r):	0.0746952	-0.000135106	0.0748303	0

Time = 48

smoothSolver:  Solving for Ux, Initial residual = 0.00407646, Final residual = 4.76726e-05, No Iterations 1
smoothSolver:  Solving for Uy, Initial residual = 0.00242998, Final residual = 2.71619e-05, No Iterations 1
smoothSolver:  Solving for Uz, Initial residual = 0.00389023, Final residual = 4.52126e-05, No Iterations 1
GAMG:  Solving for p, Initial residual = 0.0275556, Final residual = 0.002614, No Iterations 2
time step continuity errors : sum local = 2.71115e-05, global = 6.41293e-06, cumulative = -4.46507e-05
smoothSolver:  Solving for omega, Initial residual = 0.00920738, Final residual = 9.18263e-05, No Iterations 1
smoothSolver:  Solving for k, Initial residual = 0.0108576, Final residual = 0.000108006, No Iterations 1
smoothSolver:  Solving for ReThetat, Initial residual = 0.0141809, Final residual = 6.28513e-09, No Iterations 1
[...]
bounding omega, min: -1.78751 max: 968.32 average: 17.5162
smoothSolver:  Solving for k, Initial residual = 0.000741005, Final residual = 8.63704e-06, No Iterations 1
bounding k, min: -0.0646356 max: 86.4426 average: 1.32309
--> FOAM Warning : 
    From Foam::tmp<Foam::DimensionedField<double, Foam::volMesh> > Foam::RASModels::kOmegaSSTLM<BasicTurbulenceModel>::ReThetat0(const Internal&, const Internal&, const Internal&) const [with BasicTurbulenceModel = Foam::IncompressibleTurbulenceModel<Foam::transportModel>; Foam::GeometricField<double, Foam::fvPatchField, Foam::volMesh>::Internal = Foam::DimensionedField<double, Foam::volMesh>]
    in file ../turbulenceModels/lnInclude/kOmegaSSTLM.C at line 326
    Number of nj iterations exceeds maxnjIter(10)
smoothSolver:  Solving for ReThetat, Initial residual = 0.000239684, Final residual = 3.5761e-10, No Iterations 1
smoothSolver:  Solving for gammaInt, Initial residual = 0.013446, Final residual = 7.32723e-05, No Iterations 1
ExecutionTime = 928.22 s  ClockTime = 940 s

forceCoeffs forceCoeffs write:
    Coefficient	Total	Pressure	Viscous	Internal
    Cd:	-42.047	-0.728731	-41.3182	0
    Cd(f):	-21.0235	-0.364365	-20.6591	0
    Cd(r):	-21.0235	-0.364366	-20.6591	0
    Cl:	0.0146288	4.89597e-05	0.0145798	0
    Cl(f):	0.00731234	2.94454e-05	0.00728289	0
    Cl(r):	0.00731647	1.95143e-05	0.00729695	0
    CmPitch:	-2.06656e-06	4.96557e-06	-7.03213e-06	0
    CmRoll:	9.75622e-07	5.37452e-07	4.38171e-07	0
    CmYaw:	7.51528e-05	-1.38219e-05	8.89747e-05	0
    Cs:	0.188775	0.000417657	0.188357	0
    Cs(f):	0.0944626	0.000195006	0.0942675	0
    Cs(r):	0.0943122	0.00022265	0.0940896	0

Time = 593

smoothSolver:  Solving for Ux, Initial residual = 0.00147632, Final residual = 1.83084e-05, No Iterations 1
smoothSolver:  Solving for Uy, Initial residual = 0.000687407, Final residual = 8.51039e-06, No Iterations 1
smoothSolver:  Solving for Uz, Initial residual = 0.00153745, Final residual = 1.87502e-05, No Iterations 1
GAMG:  Solving for p, Initial residual = 0.00297248, Final residual = 0.000104653, No Iterations 2
time step continuity errors : sum local = 1.55381e-06, global = 1.87406e-07, cumulative = -6.9227e-07
smoothSolver:  Solving for omega, Initial residual = 0.000159659, Final residual = 1.80197e-06, No Iterations 1
bounding omega, min: -1.76242 max: 968.135 average: 17.5165
smoothSolver:  Solving for k, Initial residual = 0.000736831, Final residual = 8.60863e-06, No Iterations 1
bounding k, min: -0.0353874 max: 86.4322 average: 1.32338
--> FOAM Warning : 
    From Foam::tmp<Foam::DimensionedField<double, Foam::volMesh> > Foam::RASModels::kOmegaSSTLM<BasicTurbulenceModel>::ReThetat0(const Internal&, const Internal&, const Internal&) const [with BasicTurbulenceModel = Foam::IncompressibleTurbulenceModel<Foam::transportModel>; Foam::GeometricField<double, Foam::fvPatchField, Foam::volMesh>::Internal = Foam::DimensionedField<double, Foam::volMesh>]
    in file ../turbulenceModels/lnInclude/kOmegaSSTLM.C at line 326
    Number of nj iterations exceeds maxnjIter(10)
smoothSolver:  Solving for ReThetat, Initial residual = 0.000237953, Final residual = 3.63052e-10, No Iterations 1
smoothSolver:  Solving for gammaInt, Initial residual = 0.0123003, Final residual = 6.75976e-05, No Iterations 1
ExecutionTime = 929.51 s  ClockTime = 941 s

forceCoeffs forceCoeffs write:
    Coefficient	Total	Pressure	Viscous	Internal
    Cd:	-42.0454	-0.72877	-41.3166	0
    Cd(f):	-21.0227	-0.364384	-20.6583	0
    Cd(r):	-21.0227	-0.364385	-20.6583	0
    Cl:	0.0136811	4.85908e-05	0.0136325	0
    Cl(f):	0.00683864	2.93129e-05	0.00680933	0
    Cl(r):	0.00684245	1.92779e-05	0.00682317	0
    CmPitch:	-1.90118e-06	5.01753e-06	-6.91871e-06	0
    CmRoll:	9.55694e-07	5.19588e-07	4.36105e-07	0
    CmYaw:	7.28679e-05	-1.47043e-05	8.75723e-05	0
    Cs:	0.182538	0.000416549	0.182121	0
    Cs(f):	0.0913417	0.00019357	0.0911481	0
    Cs(r):	0.091196	0.000222979	0.090973	0

Time = 594

smoothSolver:  Solving for Ux, Initial residual = 0.00147549, Final residual = 1.83088e-05, No Iterations 1
smoothSolver:  Solving for Uy, Initial residual = 0.0006856, Final residual = 8.48208e-06, No Iterations 1
smoothSolver:  Solving for Uz, Initial residual = 0.00153695, Final residual = 1.87214e-05, No Iterations 1
GAMG:  Solving for p, Initial residual = 0.00297449, Final residual = 0.000290713, No Iterations 1
time step continuity errors : sum local = 4.31848e-06, global = 3.29065e-07, cumulative = -3.63205e-07
smoothSolver:  Solving for omega, Initial residual = 0.000158879, Final residual = 1.79397e-06, No Iterations 1
smoothSolver:  Solving for k, Initial residual = 0.000733186, Final residual = 8.59869e-06, No Iterations 1
bounding k, min: -0.039414 max: 86.4208 average: 1.32366
--> FOAM Warning : 
    From Foam::tmp<Foam::DimensionedField<double, Foam::volMesh> > Foam::RASModels::kOmegaSSTLM<BasicTurbulenceModel>::ReThetat0(const Internal&, const Internal&, const Internal&) const [with BasicTurbulenceModel = Foam::IncompressibleTurbulenceModel<Foam::transportModel>; Foam::GeometricField<double, Foam::fvPatchField, Foam::volMesh>::Internal = Foam::DimensionedField<double, Foam::volMesh>]
    in file ../turbulenceModels/lnInclude/kOmegaSSTLM.C at line 326
    Number of nj iterations exceeds maxnjIter(10)
smoothSolver:  Solving for ReThetat, Initial residual = 0.000236488, Final residual = 3.53136e-10, No Iterations 1
smoothSolver:  Solving for gammaInt, Initial residual = 0.0137724, Final residual = 8.44656e-05, No Iterations 1
ExecutionTime = 930.78 s  ClockTime = 942 s

forceCoeffs forceCoeffs write:
    Coefficient	Total	Pressure	Viscous	Internal
    Cd:	-42.0454	-0.728809	-41.3166	0
    Cd(f):	-21.0227	-0.364404	-20.6583	0
    Cd(r):	-21.0227	-0.364405	-20.6583	0
    Cl:	0.0132227	4.81972e-05	0.0131745	0
    Cl(f):	0.00660961	2.91812e-05	0.00658043	0
    Cl(r):	0.00661305	1.9016e-05	0.00659403	0
    CmPitch:	-1.71695e-06	5.08259e-06	-6.79954e-06	0
    CmRoll:	9.33834e-07	4.99813e-07	4.34021e-07	0
    CmYaw:	7.0674e-05	-1.54558e-05	8.61298e-05	0
    Cs:	0.17965	0.000415373	0.179235	0
    Cs(f):	0.0898958	0.000192231	0.0897036	0
    Cs(r):	0.0897545	0.000223142	0.0895314	0

Time = 595

smoothSolver:  Solving for Ux, Initial residual = 0.00147175, Final residual = 1.82504e-05, No Iterations 1
smoothSolver:  Solving for Uy, Initial residual = 0.000683232, Final residual = 8.44547e-06, No Iterations 1
smoothSolver:  Solving for Uz, Initial residual = 0.00153323, Final residual = 1.864e-05, No Iterations 1
GAMG:  Solving for p, Initial residual = 0.0030111, Final residual = 0.000106589, No Iterations 2
time step continuity errors : sum local = 1.58363e-06, global = 1.91268e-07, cumulative = -1.71937e-07
smoothSolver:  Solving for omega, Initial residual = 0.000157155, Final residual = 1.78167e-06, No Iterations 1
smoothSolver:  Solving for k, Initial residual = 0.000730021, Final residual = 8.59449e-06, No Iterations 1
bounding k, min: -0.0598964 max: 86.408 average: 1.32395
--> FOAM Warning : 
    From Foam::tmp<Foam::DimensionedField<double, Foam::volMesh> > Foam::RASModels::kOmegaSSTLM<BasicTurbulenceModel>::ReThetat0(const Internal&, const Internal&, const Internal&) const [with BasicTurbulenceModel = Foam::IncompressibleTurbulenceModel<Foam::transportModel>; Foam::GeometricField<double, Foam::fvPatchField, Foam::volMesh>::Internal = Foam::DimensionedField<double, Foam::volMesh>]
    in file ../turbulenceModels/lnInclude/kOmegaSSTLM.C at line 326
    Number of nj iterations exceeds maxnjIter(10)
smoothSolver:  Solving for ReThetat, Initial residual = 0.000234717, Final residual = 3.48249e-10, No Iterations 1
smoothSolver:  Solving for gammaInt, Initial residual = 0.0132456, Final residual = 8.70609e-05, No Iterations 1
ExecutionTime = 932.03 s  ClockTime = 944 s

forceCoeffs forceCoeffs write:
    Coefficient	Total	Pressure	Viscous	Internal
    Cd:	-42.0432	-0.728847	-41.3144	0
    Cd(f):	-21.0216	-0.364423	-20.6572	0
    Cd(r):	-21.0216	-0.364424	-20.6572	0
    Cl:	0.0122804	4.7734e-05	0.0122327	0
    Cl(f):	0.00613866	2.89922e-05	0.00610967	0
    Cl(r):	0.00614177	1.87419e-05	0.00612303	0
    CmPitch:	-1.55247e-06	5.12516e-06	-6.67764e-06	0
    CmRoll:	9.09751e-07	4.78194e-07	4.31557e-07	0
    CmYaw:	6.83822e-05	-1.62741e-05	8.46564e-05	0
    Cs:	0.172902	0.000413762	0.172488	0
    Cs(f):	0.0865191	0.000190607	0.0863285	0
    Cs(r):	0.0863824	0.000223155	0.0861592	0

Time = 596

smoothSolver:  Solving for Ux, Initial residual = 0.0014716, Final residual = 1.8217e-05, No Iterations 1
smoothSolver:  Solving for Uy, Initial residual = 0.000681373, Final residual = 8.41522e-06, No Iterations 1
smoothSolver:  Solving for Uz, Initial residual = 0.00153413, Final residual = 1.86069e-05, No Iterations 1
GAMG:  Solving for p, Initial residual = 0.00301617, Final residual = 0.000285233, No Iterations 1
time step continuity errors : sum local = 4.24012e-06, global = 3.39768e-07, cumulative = 1.67831e-07
smoothSolver:  Solving for omega, Initial residual = 0.000156044, Final residual = 1.77121e-06, No Iterations 1
bounding omega, min: -1.79256 max: 967.567 average: 17.5172
smoothSolver:  Solving for k, Initial residual = 0.000726797, Final residual = 8.58714e-06, No Iterations 1
bounding k, min: -0.0581916 max: 86.3942 average: 1.32424
--> FOAM Warning : 
    From Foam::tmp<Foam::DimensionedField<double, Foam::volMesh> > Foam::RASModels::kOmegaSSTLM<BasicTurbulenceModel>::ReThetat0(const Internal&, const Internal&, const Internal&) const [with BasicTurbulenceModel = Foam::IncompressibleTurbulenceModel<Foam::transportModel>; Foam::GeometricField<double, Foam::fvPatchField, Foam::volMesh>::Internal = Foam::DimensionedField<double, Foam::volMesh>]
    in file ../turbulenceModels/lnInclude/kOmegaSSTLM.C at line 326
    Number of nj iterations exceeds maxnjIter(10)
smoothSolver:  Solving for ReThetat, Initial residual = 0.000232892, Final residual = 3.54244e-10, No Iterations 1
smoothSolver:  Solving for gammaInt, Initial residual = 0.012579, Final residual = 9.12825e-05, No Iterations 1
ExecutionTime = 933.28 s  ClockTime = 945 s

forceCoeffs forceCoeffs write:
    Coefficient	Total	Pressure	Viscous	Internal
    Cd:	-42.0429	-0.728886	-41.314	0
    Cd(f):	-21.0215	-0.364442	-20.657	0
    Cd(r):	-21.0215	-0.364443	-20.657	0
    Cl:	0.0117993	4.72474e-05	0.011752	0
    Cl(f):	0.00589827	2.87989e-05	0.00586947	0
    Cl(r):	0.00590102	1.84485e-05	0.00588257	0
    CmPitch:	-1.37537e-06	5.17519e-06	-6.55056e-06	0
    CmRoll:	8.97798e-07	4.68746e-07	4.29052e-07	0
    CmYaw:	6.61941e-05	-1.69514e-05	8.31456e-05	0
    Cs:	0.169862	0.000412071	0.16945	0
    Cs(f):	0.0849972	0.000189084	0.0848081	0
    Cs(r):	0.0848648	0.000222987	0.0846418	0

Time = 597

smoothSolver:  Solving for Ux, Initial residual = 0.00146865, Final residual = 1.8122e-05, No Iterations 1
smoothSolver:  Solving for Uy, Initial residual = 0.000678883, Final residual = 8.38308e-06, No Iterations 1
smoothSolver:  Solving for Uz, Initial residual = 0.00153085, Final residual = 1.85229e-05, No Iterations 1
GAMG:  Solving for p, Initial residual = 0.00305591, Final residual = 0.00030304, No Iterations 1
time step continuity errors : sum local = 4.50562e-06, global = 3.68956e-07, cumulative = 5.36787e-07
smoothSolver:  Solving for omega, Initial residual = 0.00015598, Final residual = 1.76091e-06, No Iterations 1
bounding omega, min: -1.76666 max: 967.372 average: 17.5176
smoothSolver:  Solving for k, Initial residual = 0.000723082, Final residual = 8.57661e-06, No Iterations 1
bounding k, min: -0.0291629 max: 86.3791 average: 1.32454
--> FOAM Warning : 
    From Foam::tmp<Foam::DimensionedField<double, Foam::volMesh> > Foam::RASModels::kOmegaSSTLM<BasicTurbulenceModel>::ReThetat0(const Internal&, const Internal&, const Internal&) const [with BasicTurbulenceModel = Foam::IncompressibleTurbulenceModel<Foam::transportModel>; Foam::GeometricField<double, Foam::fvPatchField, Foam::volMesh>::Internal = Foam::DimensionedField<double, Foam::volMesh>]
    in file ../turbulenceModels/lnInclude/kOmegaSSTLM.C at line 326
    Number of nj iterations exceeds maxnjIter(10)
smoothSolver:  Solving for ReThetat, Initial residual = 0.000231572, Final residual = 3.76942e-10, No Iterations 1
smoothSolver:  Solving for gammaInt, Initial residual = 0.0118937, Final residual = 9.21099e-05, No Iterations 1
ExecutionTime = 934.53 s  ClockTime = 946 s

forceCoeffs forceCoeffs write:
    Coefficient	Total	Pressure	Viscous	Internal
    Cd:	-42.0427	-0.728924	-41.3138	0
    Cd(f):	-21.0214	-0.364461	-20.6569	0
    Cd(r):	-21.0214	-0.364462	-20.6569	0
    Cl:	0.0112867	4.67429e-05	0.0112399	0
    Cl(f):	0.00564213	2.85921e-05	0.00561354	0
    Cl(r):	0.00564454	1.81507e-05	0.00562639	0
    CmPitch:	-1.20267e-06	5.22071e-06	-6.42337e-06	0
    CmRoll:	8.89342e-07	4.63003e-07	4.26339e-07	0
    CmYaw:	6.40277e-05	-1.76018e-05	8.16295e-05	0
    Cs:	0.166475	0.000410313	0.166065	0
    Cs(f):	0.0833017	0.000187555	0.0831142	0
    Cs(r):	0.0831737	0.000222758	0.0829509	0

Time = 598

smoothSolver:  Solving for Ux, Initial residual = 0.0014658, Final residual = 1.80339e-05, No Iterations 1
smoothSolver:  Solving for Uy, Initial residual = 0.000676446, Final residual = 8.35331e-06, No Iterations 1
smoothSolver:  Solving for Uz, Initial residual = 0.00152788, Final residual = 1.84397e-05, No Iterations 1
GAMG:  Solving for p, Initial residual = 0.00309995, Final residual = 0.00011453, No Iterations 2
time step continuity errors : sum local = 1.70317e-06, global = 2.00623e-07, cumulative = 7.37411e-07
smoothSolver:  Solving for omega, Initial residual = 0.000155306, Final residual = 1.74965e-06, No Iterations 1
smoothSolver:  Solving for k, Initial residual = 0.000719676, Final residual = 8.57491e-06, No Iterations 1
bounding k, min: -0.0971801 max: 86.3626 average: 1.32485
--> FOAM Warning : 
    From Foam::tmp<Foam::DimensionedField<double, Foam::volMesh> > Foam::RASModels::kOmegaSSTLM<BasicTurbulenceModel>::ReThetat0(const Internal&, const Internal&, const Internal&) const [with BasicTurbulenceModel = Foam::IncompressibleTurbulenceModel<Foam::transportModel>; Foam::GeometricField<double, Foam::fvPatchField, Foam::volMesh>::Internal = Foam::DimensionedField<double, Foam::volMesh>]
    in file ../turbulenceModels/lnInclude/kOmegaSSTLM.C at line 326
    Number of nj iterations exceeds maxnjIter(10)
smoothSolver:  Solving for ReThetat, Initial residual = 0.000229963, Final residual = 3.72326e-10, No Iterations 1
smoothSolver:  Solving for gammaInt, Initial residual = 0.0129221, Final residual = 9.18109e-05, No Iterations 1
ExecutionTime = 935.76 s  ClockTime = 947 s

forceCoeffs forceCoeffs write:
    Coefficient	Total	Pressure	Viscous	Internal
    Cd:	-42.0406	-0.728961	-41.3116	0
    Cd(f):	-21.0203	-0.36448	-20.6558	0
    Cd(r):	-21.0203	-0.364481	-20.6558	0
    Cl:	0.0104412	4.61745e-05	0.0103951	0
    Cl(f):	0.00521957	2.83254e-05	0.00519124	0
    Cl(r):	0.00522168	1.78491e-05	0.00520383	0
    CmPitch:	-1.05518e-06	5.23814e-06	-6.29332e-06	0
    CmRoll:	8.7548e-07	4.51694e-07	4.23786e-07	0
    CmYaw:	6.17372e-05	-1.83284e-05	8.00656e-05	0
    Cs:	0.158691	0.000408043	0.158283	0
    Cs(f):	0.0794075	0.000185693	0.0792218	0
    Cs(r):	0.079284	0.00022235	0.0790616	0

Time = 599

smoothSolver:  Solving for Ux, Initial residual = 0.00146808, Final residual = 1.80246e-05, No Iterations 1
smoothSolver:  Solving for Uy, Initial residual = 0.000674522, Final residual = 8.33058e-06, No Iterations 1
smoothSolver:  Solving for Uz, Initial residual = 0.00152986, Final residual = 1.8423e-05, No Iterations 1
GAMG:  Solving for p, Initial residual = 0.00310188, Final residual = 0.000294877, No Iterations 1
time step continuity errors : sum local = 4.38774e-06, global = 3.72348e-07, cumulative = 1.10976e-06
smoothSolver:  Solving for omega, Initial residual = 0.000153665, Final residual = 1.73542e-06, No Iterations 1
smoothSolver:  Solving for k, Initial residual = 0.000716308, Final residual = 8.5688e-06, No Iterations 1
bounding k, min: -0.0485009 max: 86.345 average: 1.32517
--> FOAM Warning : 
    From Foam::tmp<Foam::DimensionedField<double, Foam::volMesh> > Foam::RASModels::kOmegaSSTLM<BasicTurbulenceModel>::ReThetat0(const Internal&, const Internal&, const Internal&) const [with BasicTurbulenceModel = Foam::IncompressibleTurbulenceModel<Foam::transportModel>; Foam::GeometricField<double, Foam::fvPatchField, Foam::volMesh>::Internal = Foam::DimensionedField<double, Foam::volMesh>]
    in file ../turbulenceModels/lnInclude/kOmegaSSTLM.C at line 326
    Number of nj iterations exceeds maxnjIter(10)
smoothSolver:  Solving for ReThetat, Initial residual = 0.000228027, Final residual = 3.61518e-10, No Iterations 1
smoothSolver:  Solving for gammaInt, Initial residual = 0.0120539, Final residual = 7.8428e-05, No Iterations 1
ExecutionTime = 936.97 s  ClockTime = 949 s

forceCoeffs forceCoeffs write:
    Coefficient	Total	Pressure	Viscous	Internal
    Cd:	-42.0406	-0.728998	-41.3116	0
    Cd(f):	-21.0203	-0.364499	-20.6558	0
    Cd(r):	-21.0203	-0.3645	-20.6558	0
    Cl:	0.00997375	4.55816e-05	0.00992817	0
    Cl(f):	0.00498599	2.80699e-05	0.00495792	0
    Cl(r):	0.00498776	1.75117e-05	0.00497025	0
    CmPitch:	-8.82573e-07	5.27908e-06	-6.16165e-06	0
    CmRoll:	9.27359e-07	5.05962e-07	4.21397e-07	0
    CmYaw:	5.95477e-05	-1.89195e-05	7.84672e-05	0
    Cs:	0.155235	0.00040565	0.154829	0
    Cs(f):	0.0776771	0.000183905	0.0774932	0
    Cs(r):	0.077558	0.000221744	0.0773362	0

Time = 600

smoothSolver:  Solving for Ux, Initial residual = 0.0014654, Final residual = 1.79565e-05, No Iterations 1
smoothSolver:  Solving for Uy, Initial residual = 0.000672058, Final residual = 8.30452e-06, No Iterations 1
smoothSolver:  Solving for Uz, Initial residual = 0.00152659, Final residual = 1.83552e-05, No Iterations 1
GAMG:  Solving for p, Initial residual = 0.003134, Final residual = 0.000307644, No Iterations 1
time step continuity errors : sum local = 4.57857e-06, global = 3.8937e-07, cumulative = 1.49913e-06
smoothSolver:  Solving for omega, Initial residual = 0.000152697, Final residual = 1.72615e-06, No Iterations 1
bounding omega, min: -1.7975 max: 966.775 average: 17.5184
smoothSolver:  Solving for k, Initial residual = 0.000714132, Final residual = 8.57134e-06, No Iterations 1
bounding k, min: -0.0531172 max: 86.3261 average: 1.32549
--> FOAM Warning : 
    From Foam::tmp<Foam::DimensionedField<double, Foam::volMesh> > Foam::RASModels::kOmegaSSTLM<BasicTurbulenceModel>::ReThetat0(const Internal&, const Internal&, const Internal&) const [with BasicTurbulenceModel = Foam::IncompressibleTurbulenceModel<Foam::transportModel>; Foam::GeometricField<double, Foam::fvPatchField, Foam::volMesh>::Internal = Foam::DimensionedField<double, Foam::volMesh>]
    in file ../turbulenceModels/lnInclude/kOmegaSSTLM.C at line 326
    Number of lambda iterations exceeds maxLambdaIter(10)
smoothSolver:  Solving for ReThetat, Initial residual = 0.000225796, Final residual = 3.43439e-10, No Iterations 1
smoothSolver:  Solving for gammaInt, Initial residual = 0.0138218, Final residual = 8.26641e-05, No Iterations 1
ExecutionTime = 939.86 s  ClockTime = 952 s

forceCoeffs forceCoeffs write:
    Coefficient	Total	Pressure	Viscous	Internal
    Cd:	-42.0409	-0.729035	-41.3118	0
    Cd(f):	-21.0204	-0.364517	-20.6559	0
    Cd(r):	-21.0204	-0.364518	-20.6559	0
    Cl:	0.00952247	4.49819e-05	0.00947749	0
    Cl(f):	0.00476054	2.78241e-05	0.00473272	0
    Cl(r):	0.00476193	1.71578e-05	0.00474477	0
    CmPitch:	-6.9557e-07	5.33319e-06	-6.02876e-06	0
    CmRoll:	9.30086e-07	5.11288e-07	4.18797e-07	0
    CmYaw:	5.73276e-05	-1.95381e-05	7.68657e-05	0
    Cs:	0.151526	0.000403171	0.151123	0
    Cs(f):	0.0758203	0.000182047	0.0756383	0
    Cs(r):	0.0757057	0.000221123	0.0754846	0

    writing force and moment coefficient files.

yPlus yPlus write:
    writing field yPlus
    patch sphere_1m y+ : min = 126.396, max = 3502.65, average = 1922.76
End

