/*---------------------------------------------------------------------------*\
| =========                 |                                                 |
| \\      /  F ield         | OpenFOAM: The Open Source CFD Toolbox           |
|  \\    /   O peration     | Version:  2206                                  |
|   \\  /    A nd           | Website:  www.openfoam.com                      |
|    \\/     M anipulation  |                                                 |
\*---------------------------------------------------------------------------*/
Build  : _76d719d1-20220624 OPENFOAM=2206 version=2206
Arch   : "LSB;label=32;scalar=64"
Exec   : simpleFoam
Date   : Aug 03 2022
Time   : 12:20:52
Host   : bfe9cf2175e5
PID    : 281
I/O    : uncollated
Case   : /home/openfoam
nProcs : 1
trapFpe: Floating point exception trapping enabled (FOAM_SIGFPE).
fileModificationChecking : Monitoring run-time modified files using timeStampMaster (fileModificationSkew 5, maxFileModificationPolls 20)
allowSystemOperations : Allowing user-supplied system call operations

// * * * * * * * * * * * * * * * * * * * * * * * * * * * * * * * * * * * * * //
Create time

Create mesh for time = 0


SIMPLE: convergence criteria
    field p	 tolerance 1e-05
    field U	 tolerance 1e-05
    field "(k|omega|gammaInt|ReThetat)"	 tolerance 0.0001

Reading field p

Reading field U

Reading/calculating face flux field phi

Selecting incompressible transport model Newtonian
Selecting turbulence model type RAS
Selecting RAS turbulence model kOmegaSSTLM
Selecting patchDistMethod meshWave
RAS
{
    RASModel        kOmegaSSTLM;
    turbulence      on;
    printCoeffs     on;
    alphaK1         0.85;
    alphaK2         1;
    alphaOmega1     0.5;
    alphaOmega2     0.856;
    gamma1          0.555556;
    gamma2          0.44;
    beta1           0.075;
    beta2           0.0828;
    betaStar        0.09;
    a1              0.31;
    b1              1;
    c1              10;
    F3              false;
    decayControl    false;
    kInf            0;
    omegaInf        0;
    ca1             2;
    ca2             0.06;
    ce1             1;
    ce2             50;
    cThetat         0.03;
    sigmaThetat     2;
}

No MRF models present

No finite volume options present

Starting time loop

forceCoeffs forceCoeffs:
--> FOAM Warning : 
    From Foam::labelHashSet Foam::polyBoundaryMesh::patchSet(const Foam::UList<Foam::wordRe>&, bool, bool) const
    in file meshes/polyMesh/polyBoundaryMesh/polyBoundaryMesh.C at line 893
    Cannot find any patch or group names matching sfera1,
    rho: rhoInf
    Freestream density (rhoInf) set to 1.225
    Not including porosity effects
    magUInf: 42
    lRef   : 1
    Aref   : 3.14
    rhoInf : 1.225
    Selecting all coefficients
    - Drag force: Cd
    - Drag force front: Cd(f)
    - Drag force rear: Cd(r)
    - Lift force: Cl
    - Lift force front: Cl(f)
    - Lift force rear: Cl(r)
    - Pitch moment: CmPitch
    - Roll moment: CmRoll
    - Yaw moment: CmYaw
    - Side force: Cs
    - Side force front: Cs(f)
    - Side force rear: Cs(r)


Time = 1

smoothSolver:  Solving for Ux, Initial residual = 1, Final residual = 0.0193078, No Iterations 1
smoothSolver:  Solving for Uy, Initial residual = 1, Final residual = 0.0169125, No Iterations 1
smoothSolver:  Solving for Uz, Initial residual = 1, Final residual = 0.0139423, No Iterations 1
GAMG:  Solving for p, Initial residual = 1, Final residual = 0.0864882, No Iterations 4
time step continuity errors : sum local = 0.000640045, global = 5.03068e-05, cumulative = 5.03068e-05
smoothSolver:  Solving for omega, Initial residual = 0.370009, Final residual = 0.00209215, No Iterations 1
smoothSolver:  Solving for k, Initial residual = 1, Final residual = 0.0064098, No Iterations 1
smoothSolver:  Solving for ReThetat, Initial residual = 1, Final residual = 6.37228e-07, No Iterations 1
smoothSolver:  Solving for gammaInt, Initial residual = 1, Final residual = 1.24243, No Iterations 100
ExecutionTime = 4.16 s  ClockTime = 4 s

forceCoeffs forceCoeffs write:
    Coefficient	Total	Pressure	Viscous	Internal
    Cd:	-4.67228	-0.00875682	-4.66352	0
    Cd(f):	-2.33853	-0.00677241	-2.33176	0
    Cd(r):	-2.33375	-0.00198441	-2.33176	0
    Cl:	0.369088	3.25997e-05	0.369056	0
    Cl(f):	3.52835	3.33643	0.191915	0
    Cl(r):	-3.15926	-3.3364	0.177141	0
    CmPitch:	3.3438	3.33641	0.00738668	0
    CmRoll:	-0.00239413	-0.002394	-1.33556e-07	0
    CmYaw:	-0.0107171	-0.0107007	-1.63534e-05	0
    Cs:	-0.00129189	-2.3685e-07	-0.00129166	0
    Cs(f):	-0.011363	-0.0107008	-0.000662181	0
    Cs(r):	0.0100711	0.0107006	-0.000629474	0

Time = 2

smoothSolver:  Solving for Ux, Initial residual = 0.383637, Final residual = 0.0048248, No Iterations 1
smoothSolver:  Solving for Uy, Initial residual = 0.332555, Final residual = 0.00409338, No Iterations 1
smoothSolver:  Solving for Uz, Initial residual = 0.387734, Final residual = 0.00479101, No Iterations 1
GAMG:  Solving for p, Initial residual = 0.196728, Final residual = 0.013553, No Iterations 3
time step continuity errors : sum local = 0.000606028, global = 4.12498e-05, cumulative = 9.15566e-05
smoothSolver:  Solving for omega, Initial residual = 0.234339, Final residual = 0.00136582, No Iterations 1
smoothSolver:  Solving for k, Initial residual = 0.858349, Final residual = 0.00492461, No Iterations 1
smoothSolver:  Solving for ReThetat, Initial residual = 0.960449, Final residual = 6.167e-07, No Iterations 1
smoothSolver:  Solving for gammaInt, Initial residual = 0.347645, Final residual = 0.370138, No Iterations 100
ExecutionTime = 6.53 s  ClockTime = 7 s

forceCoeffs forceCoeffs write:
    Coefficient	Total	Pressure	Viscous	Internal
    Cd:	-6.14297	-0.00939876	-6.13357	0
    Cd(f):	-3.07382	-0.00703659	-3.06679	0
    Cd(r):	-3.06915	-0.00236217	-3.06679	0
    Cl:	0.312858	-8.03409e-05	0.312939	0
    Cl(f):	4.64391	4.47922	0.164694	0
    Cl(r):	-4.33105	-4.4793	0.148244	0
    CmPitch:	4.48748	4.47926	0.00822499	0
    CmRoll:	-0.00233745	-0.00233721	-2.46213e-07	0
    CmYaw:	-0.0140641	-0.0140464	-1.77365e-05	0
    Cs:	-0.00152982	-6.12214e-07	-0.00152921	0
    Cs(f):	-0.014829	-0.0140467	-0.000782343	0
    Cs(r):	0.0132992	0.0140461	-0.00074687	0

Time = 3

smoothSolver:  Solving for Ux, Initial residual = 0.248854, Final residual = 0.00311884, No Iterations 1
smoothSolver:  Solving for Uy, Initial residual = 0.211532, Final residual = 0.00261688, No Iterations 1
smoothSolver:  Solving for Uz, Initial residual = 0.251479, Final residual = 0.00311145, No Iterations 1
GAMG:  Solving for p, Initial residual = 0.155276, Final residual = 0.0098403, No Iterations 2
time step continuity errors : sum local = 0.00064216, global = 3.64677e-05, cumulative = 0.000128024
smoothSolver:  Solving for omega, Initial residual = 0.167461, Final residual = 0.00100385, No Iterations 1
smoothSolver:  Solving for k, Initial residual = 0.372985, Final residual = 0.00220145, No Iterations 1
smoothSolver:  Solving for ReThetat, Initial residual = 0.936649, Final residual = 6.07558e-07, No Iterations 1
smoothSolver:  Solving for gammaInt, Initial residual = 0.254779, Final residual = 0.250027, No Iterations 100
ExecutionTime = 8.75 s  ClockTime = 9 s

forceCoeffs forceCoeffs write:
    Coefficient	Total	Pressure	Viscous	Internal
    Cd:	-5.24936	-0.0101311	-5.23923	0
    Cd(f):	-2.6241	-0.00448545	-2.61961	0
    Cd(r):	-2.62526	-0.00564561	-2.61961	0
    Cl:	0.144794	-0.00020955	0.145004	0
    Cl(f):	3.98296	3.9013	0.0816565	0
    Cl(r):	-3.83817	-3.90151	0.0633471	0
    CmPitch:	3.91056	3.90141	0.00915472	0
    CmRoll:	0.00058011	0.000580076	3.32491e-08	0
    CmYaw:	-0.0119744	-0.0119551	-1.93178e-05	0
    Cs:	0.00248552	-5.03638e-07	0.00248602	0
    Cs(f):	-0.0107317	-0.0119554	0.00122369	0
    Cs(r):	0.0132172	0.0119548	0.00126233	0

Time = 4

smoothSolver:  Solving for Ux, Initial residual = 0.158077, Final residual = 0.00197454, No Iterations 1
smoothSolver:  Solving for Uy, Initial residual = 0.132531, Final residual = 0.00164644, No Iterations 1
smoothSolver:  Solving for Uz, Initial residual = 0.161676, Final residual = 0.00200174, No Iterations 1
GAMG:  Solving for p, Initial residual = 0.147044, Final residual = 0.009896, No Iterations 3
time step continuity errors : sum local = 0.000702795, global = -1.18228e-05, cumulative = 0.000116201
smoothSolver:  Solving for omega, Initial residual = 0.128542, Final residual = 0.000789705, No Iterations 1
smoothSolver:  Solving for k, Initial residual = 0.234081, Final residual = 0.00141423, No Iterations 1
smoothSolver:  Solving for ReThetat, Initial residual = 0.93248, Final residual = 6.12079e-07, No Iterations 1
smoothSolver:  Solving for gammaInt, Initial residual = 0.21619, Final residual = 0.204114, No Iterations 100
ExecutionTime = 11.06 s  ClockTime = 11 s

forceCoeffs forceCoeffs write:
    Coefficient	Total	Pressure	Viscous	Internal
    Cd:	-2.96343	-0.0104355	-2.953	0
    Cd(f):	-1.47976	-0.00326561	-1.4765	0
    Cd(r):	-1.48367	-0.0071699	-1.4765	0
    Cl:	-0.05312	-0.000334805	-0.0527852	0
    Cl(f):	2.21023	2.227	-0.0167616	0
    Cl(r):	-2.26335	-2.22733	-0.0360236	0
    CmPitch:	2.23679	2.22716	0.009631	0
    CmRoll:	0.00195267	0.00195214	5.29376e-07	0
    CmYaw:	-0.00674619	-0.00672632	-1.98752e-05	0
    Cs:	0.0032779	-2.11542e-07	0.00327811	0
    Cs(f):	-0.00510725	-0.00672642	0.00161918	0
    Cs(r):	0.00838514	0.00672621	0.00165893	0

Time = 5

smoothSolver:  Solving for Ux, Initial residual = 0.0866564, Final residual = 0.00106896, No Iterations 1
smoothSolver:  Solving for Uy, Initial residual = 0.0710458, Final residual = 0.000880565, No Iterations 1
smoothSolver:  Solving for Uz, Initial residual = 0.0920046, Final residual = 0.00113377, No Iterations 1
GAMG:  Solving for p, Initial residual = 0.138557, Final residual = 0.0125529, No Iterations 3
time step continuity errors : sum local = 0.000864125, global = -4.08368e-05, cumulative = 7.53647e-05
smoothSolver:  Solving for omega, Initial residual = 0.103104, Final residual = 0.000646677, No Iterations 1
smoothSolver:  Solving for k, Initial residual = 0.168352, Final residual = 0.00103785, No Iterations 1
smoothSolver:  Solving for ReThetat, Initial residual = 0.947839, Final residual = 6.30435e-07, No Iterations 1
smoothSolver:  Solving for gammaInt, Initial residual = 0.191015, Final residual = 0.179486, No Iterations 100
ExecutionTime = 13.49 s  ClockTime = 14 s

forceCoeffs forceCoeffs write:
    Coefficient	Total	Pressure	Viscous	Internal
    Cd:	-0.587293	-0.0101457	-0.577147	0
    Cd(f):	-0.291575	-0.00300277	-0.288573	0
    Cd(r):	-0.295718	-0.00714291	-0.288575	0
    Cl:	-0.172019	-0.00042802	-0.171591	0
    Cl(f):	0.335484	0.4118	-0.0763156	0
    Cl(r):	-0.507504	-0.412228	-0.0952756	0
    CmPitch:	0.421494	0.412014	0.00948001	0
    CmRoll:	0.00207127	0.00207007	1.20154e-06	0
    CmYaw:	-0.00136036	-0.00134125	-1.91102e-05	0
    Cs:	0.00233094	4.00327e-07	0.00233054	0
    Cs(f):	-0.000194895	-0.00134105	0.00114616	0
    Cs(r):	0.00252583	0.00134145	0.00118438	0

Time = 6

smoothSolver:  Solving for Ux, Initial residual = 0.03735, Final residual = 0.000443697, No Iterations 1
smoothSolver:  Solving for Uy, Initial residual = 0.0280513, Final residual = 0.000331276, No Iterations 1
smoothSolver:  Solving for Uz, Initial residual = 0.0420277, Final residual = 0.00049759, No Iterations 1
GAMG:  Solving for p, Initial residual = 0.187434, Final residual = 0.0135539, No Iterations 3
time step continuity errors : sum local = 0.000745246, global = -5.03312e-05, cumulative = 2.50335e-05
smoothSolver:  Solving for omega, Initial residual = 0.0854717, Final residual = 0.000545867, No Iterations 1
smoothSolver:  Solving for k, Initial residual = 0.130591, Final residual = 0.000819861, No Iterations 1
smoothSolver:  Solving for ReThetat, Initial residual = 0.969462, Final residual = 6.54755e-07, No Iterations 1
smoothSolver:  Solving for gammaInt, Initial residual = 0.177855, Final residual = 0.163307, No Iterations 100
ExecutionTime = 15.9 s  ClockTime = 16 s

forceCoeffs forceCoeffs write:
    Coefficient	Total	Pressure	Viscous	Internal
    Cd:	1.07543	-0.00942865	1.08486	0
    Cd(f):	0.538721	-0.00370996	0.542431	0
    Cd(r):	0.536709	-0.0057187	0.542428	0
    Cl:	-0.173093	-0.000495491	-0.172597	0
    Cl(f):	-0.990305	-0.912863	-0.0774423	0
    Cl(r):	0.817212	0.912367	-0.0951549	0
    CmPitch:	-0.903759	-0.912615	0.00885629	0
    CmRoll:	0.0010059	0.00100437	1.52955e-06	0
    CmYaw:	0.00235133	0.00236852	-1.71837e-05	0
    Cs:	0.000124618	6.89171e-07	0.000123928	0
    Cs(f):	0.00241364	0.00236886	4.47806e-05	0
    Cs(r):	-0.00228903	-0.00236817	7.91479e-05	0

Time = 7

smoothSolver:  Solving for Ux, Initial residual = 0.0443117, Final residual = 0.000541481, No Iterations 1
smoothSolver:  Solving for Uy, Initial residual = 0.0392953, Final residual = 0.000465912, No Iterations 1
smoothSolver:  Solving for Uz, Initial residual = 0.0469662, Final residual = 0.000563163, No Iterations 1
GAMG:  Solving for p, Initial residual = 0.324155, Final residual = 0.030953, No Iterations 2
time step continuity errors : sum local = 0.00104756, global = -7.09179e-05, cumulative = -4.58844e-05
smoothSolver:  Solving for omega, Initial residual = 0.0727223, Final residual = 0.000472158, No Iterations 1
bounding omega, min: -0.805956 max: 522.518 average: 33.0801
smoothSolver:  Solving for k, Initial residual = 0.10621, Final residual = 0.000678297, No Iterations 1
smoothSolver:  Solving for ReThetat, Initial residual = 0.976328, Final residual = 6.71577e-07, No Iterations 1
smoothSolver:  Solving for gammaInt, Initial residual = 0.160896, Final residual = 0.148942, No Iterations 100
ExecutionTime = 18.12 s  ClockTime = 18 s

forceCoeffs forceCoeffs write:
    Coefficient	Total	Pressure	Viscous	Internal
    Cd:	1.68331	-0.00858656	1.69189	0
    Cd(f):	0.841371	-0.00457845	0.845949	0
    Cd(r):	0.841938	-0.00400811	0.845946	0
    Cl:	-0.116267	-0.000523845	-0.115743	0
    Cl(f):	-1.48474	-1.43496	-0.049784	0
    Cl(r):	1.36847	1.43443	-0.0659588	0
    CmPitch:	-1.42661	-1.43469	0.00808742	0
    CmRoll:	-0.000283474	-0.000285171	1.6962e-06	0
    CmYaw:	0.0036464	0.00366154	-1.51355e-05	0
    Cs:	-0.0017618	8.22405e-07	-0.00176263	0
    Cs(f):	0.0027655	0.00366195	-0.000896448	0
    Cs(r):	-0.00452731	-0.00366113	-0.000866177	0

Time = 8

smoothSolver:  Solving for Ux, Initial residual = 0.0717204, Final residual = 0.000891646, No Iterations 1
smoothSolver:  Solving for Uy, Initial residual = 0.0604622, Final residual = 0.000740833, No Iterations 1
smoothSolver:  Solving for Uz, Initial residual = 0.0709589, Final residual = 0.000864227, No Iterations 1
GAMG:  Solving for p, Initial residual = 0.502823, Final residual = 0.0372369, No Iterations 2
time step continuity errors : sum local = 0.00074634, global = -9.19415e-05, cumulative = -0.000137826
smoothSolver:  Solving for omega, Initial residual = 0.0631753, Final residual = 0.000416818, No Iterations 1
smoothSolver:  Solving for k, Initial residual = 0.0892259, Final residual = 0.0005793, No Iterations 1
smoothSolver:  Solving for ReThetat, Initial residual = 0.988273, Final residual = 6.95037e-07, No Iterations 1
smoothSolver:  Solving for gammaInt, Initial residual = 0.150498, Final residual = 0.138197, No Iterations 100
ExecutionTime = 20.33 s  ClockTime = 20 s

forceCoeffs forceCoeffs write:
    Coefficient	Total	Pressure	Viscous	Internal
    Cd:	1.53981	-0.00784184	1.54765	0
    Cd(f):	0.766972	-0.0068541	0.773826	0
    Cd(r):	0.772835	-0.000987738	0.773823	0
    Cl:	-0.0161093	-0.000519091	-0.0155902	0
    Cl(f):	-1.36925	-1.36886	-0.000388204	0
    Cl(r):	1.35314	1.36834	-0.015202	0
    CmPitch:	-1.36119	-1.3686	0.0074069	0
    CmRoll:	-0.00293174	-0.00293318	1.445e-06	0
    CmYaw:	0.00323883	0.00325229	-1.34587e-05	0
    Cs:	-0.00499509	4.64347e-07	-0.00499556	0
    Cs(f):	0.000741282	0.00325252	-0.00251124	0
    Cs(r):	-0.00573638	-0.00325206	-0.00248432	0

Time = 9

smoothSolver:  Solving for Ux, Initial residual = 0.0859797, Final residual = 0.00106223, No Iterations 1
smoothSolver:  Solving for Uy, Initial residual = 0.0665131, Final residual = 0.000824255, No Iterations 1
smoothSolver:  Solving for Uz, Initial residual = 0.0836182, Final residual = 0.00102263, No Iterations 1
GAMG:  Solving for p, Initial residual = 0.34431, Final residual = 0.026019, No Iterations 2
time step continuity errors : sum local = 0.000664753, global = -8.15298e-05, cumulative = -0.000219356
smoothSolver:  Solving for omega, Initial residual = 0.0558363, Final residual = 0.000373972, No Iterations 1
smoothSolver:  Solving for k, Initial residual = 0.0767359, Final residual = 0.000506305, No Iterations 1
smoothSolver:  Solving for ReThetat, Initial residual = 0.970642, Final residual = 7.01626e-07, No Iterations 1
smoothSolver:  Solving for gammaInt, Initial residual = 0.139249, Final residual = 0.128881, No Iterations 100
ExecutionTime = 22.44 s  ClockTime = 23 s

forceCoeffs forceCoeffs write:
    Coefficient	Total	Pressure	Viscous	Internal
    Cd:	0.947033	-0.007303	0.954336	0
    Cd(f):	0.468769	-0.00839952	0.477169	0
    Cd(r):	0.478264	0.00109653	0.477167	0
    Cl:	0.0731388	-0.000495395	0.0736341	0
    Cl(f):	-0.88129	-0.925029	0.0437391	0
    Cl(r):	0.954428	0.924533	0.029895	0
    CmPitch:	-0.917859	-0.924781	0.00692203	0
    CmRoll:	-0.00474723	-0.00474803	7.93261e-07	0
    CmYaw:	0.00184524	0.00185758	-1.23418e-05	0
    Cs:	-0.00718851	-3.79842e-07	-0.00718813	0
    Cs(f):	-0.00174902	0.00185739	-0.00360641	0
    Cs(r):	-0.00543949	-0.00185777	-0.00358173	0

Time = 10

smoothSolver:  Solving for Ux, Initial residual = 0.0862328, Final residual = 0.00104953, No Iterations 1
smoothSolver:  Solving for Uy, Initial residual = 0.0571628, Final residual = 0.000706938, No Iterations 1
smoothSolver:  Solving for Uz, Initial residual = 0.0828519, Final residual = 0.00100538, No Iterations 1
GAMG:  Solving for p, Initial residual = 0.228835, Final residual = 0.0213919, No Iterations 2
time step continuity errors : sum local = 0.00072819, global = -3.92132e-05, cumulative = -0.000258569
smoothSolver:  Solving for omega, Initial residual = 0.0499757, Final residual = 0.000339707, No Iterations 1
bounding omega, min: -1.00674 max: 541.024 average: 32.7612
smoothSolver:  Solving for k, Initial residual = 0.0671996, Final residual = 0.000450347, No Iterations 1
smoothSolver:  Solving for ReThetat, Initial residual = 0.736622, Final residual = 5.51238e-07, No Iterations 1
smoothSolver:  Solving for gammaInt, Initial residual = 0.132381, Final residual = 0.121266, No Iterations 100
ExecutionTime = 24.55 s  ClockTime = 25 s

forceCoeffs forceCoeffs write:
    Coefficient	Total	Pressure	Viscous	Internal
    Cd:	0.220866	-0.00699917	0.227866	0
    Cd(f):	0.105803	-0.00812979	0.113933	0
    Cd(r):	0.115063	0.00113063	0.113933	0
    Cl:	0.106402	-0.000468763	0.106871	0
    Cl(f):	-0.274507	-0.334604	0.0600966	0
    Cl(r):	0.380909	0.334135	0.0467742	0
    CmPitch:	-0.327708	-0.334369	0.00666118	0
    CmRoll:	-0.00463019	-0.00463021	1.82275e-08	0
    CmYaw:	0.000194283	0.000206106	-1.18228e-05	0
    Cs:	-0.00658553	-1.38693e-06	-0.00658414	0
    Cs(f):	-0.00309848	0.000205412	-0.00330389	0
    Cs(r):	-0.00348705	-0.000206799	-0.00328025	0

Time = 11

smoothSolver:  Solving for Ux, Initial residual = 0.0684715, Final residual = 0.000819096, No Iterations 1
smoothSolver:  Solving for Uy, Initial residual = 0.0375566, Final residual = 0.000452114, No Iterations 1
smoothSolver:  Solving for Uz, Initial residual = 0.0662681, Final residual = 0.000780496, No Iterations 1
GAMG:  Solving for p, Initial residual = 0.181053, Final residual = 0.00924946, No Iterations 3
time step continuity errors : sum local = 0.000362835, global = 9.83237e-06, cumulative = -0.000248737
smoothSolver:  Solving for omega, Initial residual = 0.0451408, Final residual = 0.000311472, No Iterations 1
bounding omega, min: -1.91482 max: 556.355 average: 32.6542
smoothSolver:  Solving for k, Initial residual = 0.0597245, Final residual = 0.000406052, No Iterations 1
smoothSolver:  Solving for ReThetat, Initial residual = 0.500208, Final residual = 3.91309e-07, No Iterations 1
smoothSolver:  Solving for gammaInt, Initial residual = 0.12411, Final residual = 0.113815, No Iterations 100
ExecutionTime = 26.69 s  ClockTime = 27 s

forceCoeffs forceCoeffs write:
    Coefficient	Total	Pressure	Viscous	Internal
    Cd:	-0.409552	-0.0069	-0.402652	0
    Cd(f):	-0.206414	-0.00508699	-0.201327	0
    Cd(r):	-0.203139	-0.00181301	-0.201326	0
    Cl:	0.072041	-0.000453171	0.0724942	0
    Cl(f):	0.256831	0.21399	0.0428408	0
    Cl(r):	-0.18479	-0.214443	0.0296534	0
    CmPitch:	0.22081	0.214217	0.00659371	0
    CmRoll:	-0.0016373	-0.00163699	-3.0393e-07	0
    CmYaw:	-0.00119951	-0.00118766	-1.18472e-05	0
    Cs:	-0.00130144	-1.93074e-06	-0.00129951	0
    Cs(f):	-0.00185023	-0.00118863	-0.000661602	0
    Cs(r):	0.000548791	0.0011867	-0.000637907	0

Time = 12

smoothSolver:  Solving for Ux, Initial residual = 0.0437046, Final residual = 0.000518135, No Iterations 1
smoothSolver:  Solving for Uy, Initial residual = 0.0254537, Final residual = 0.000294209, No Iterations 1
smoothSolver:  Solving for Uz, Initial residual = 0.046397, Final residual = 0.000537048, No Iterations 1
GAMG:  Solving for p, Initial residual = 0.189476, Final residual = 0.00856073, No Iterations 3
time step continuity errors : sum local = 0.000299509, global = 1.99197e-05, cumulative = -0.000228817
smoothSolver:  Solving for omega, Initial residual = 0.0410845, Final residual = 0.000287751, No Iterations 1
smoothSolver:  Solving for k, Initial residual = 0.0536313, Final residual = 0.000369876, No Iterations 1
smoothSolver:  Solving for ReThetat, Initial residual = 0.298952, Final residual = 2.47739e-07, No Iterations 1
smoothSolver:  Solving for gammaInt, Initial residual = 0.119134, Final residual = 0.108867, No Iterations 100
ExecutionTime = 28.86 s  ClockTime = 29 s

forceCoeffs forceCoeffs write:
    Coefficient	Total	Pressure	Viscous	Internal
    Cd:	-0.723735	-0.00691395	-0.716821	0
    Cd(f):	-0.360784	-0.00237301	-0.358411	0
    Cd(r):	-0.362952	-0.00454095	-0.358411	0
    Cl:	0.0280091	-0.000455697	0.0284648	0
    Cl(f):	0.529367	0.508503	0.0208633	0
    Cl(r):	-0.501357	-0.508959	0.00760151	0
    CmPitch:	0.515362	0.508731	0.00663091	0
    CmRoll:	0.00108391	0.00108397	-6.31188e-08	0
    CmYaw:	-0.00187002	-0.00185787	-1.21481e-05	0
    Cs:	0.00298019	-1.88067e-06	0.00298207	0
    Cs(f):	-0.000379922	-0.00185881	0.00147889	0
    Cs(r):	0.00336011	0.00185693	0.00150318	0

Time = 13

smoothSolver:  Solving for Ux, Initial residual = 0.045606, Final residual = 0.000560403, No Iterations 1
smoothSolver:  Solving for Uy, Initial residual = 0.0305578, Final residual = 0.000369304, No Iterations 1
smoothSolver:  Solving for Uz, Initial residual = 0.0462561, Final residual = 0.000555179, No Iterations 1
GAMG:  Solving for p, Initial residual = 0.26866, Final residual = 0.0216441, No Iterations 2
time step continuity errors : sum local = 0.000494497, global = 5.08819e-05, cumulative = -0.000177935
smoothSolver:  Solving for omega, Initial residual = 0.0376384, Final residual = 0.000267473, No Iterations 1
bounding omega, min: -0.90401 max: 586.03 average: 32.4427
smoothSolver:  Solving for k, Initial residual = 0.0485661, Final residual = 0.000339764, No Iterations 1
smoothSolver:  Solving for ReThetat, Initial residual = 0.181307, Final residual = 1.62288e-07, No Iterations 1
smoothSolver:  Solving for gammaInt, Initial residual = 0.114689, Final residual = 0.104471, No Iterations 100
ExecutionTime = 31.24 s  ClockTime = 31 s

forceCoeffs forceCoeffs write:
    Coefficient	Total	Pressure	Viscous	Internal
    Cd:	-0.730042	-0.00694377	-0.723098	0
    Cd(f):	-0.362195	-0.000646074	-0.361549	0
    Cd(r):	-0.367847	-0.00629769	-0.36155	0
    Cl:	0.00460446	-0.000473744	0.0050782	0
    Cl(f):	0.543481	0.534262	0.00921823	0
    Cl(r):	-0.538876	-0.534736	-0.00414003	0
    CmPitch:	0.541178	0.534499	0.00667913	0
    CmRoll:	0.0028264	0.00282581	5.91819e-07	0
    CmYaw:	-0.00184791	-0.00183544	-1.24777e-05	0
    Cs:	0.00542529	-1.36847e-06	0.00542666	0
    Cs(f):	0.00086473	-0.00183612	0.00270085	0
    Cs(r):	0.00456056	0.00183475	0.00272581	0

Time = 14

smoothSolver:  Solving for Ux, Initial residual = 0.045609, Final residual = 0.000560441, No Iterations 1
smoothSolver:  Solving for Uy, Initial residual = 0.0308813, Final residual = 0.000381848, No Iterations 1
smoothSolver:  Solving for Uz, Initial residual = 0.0454902, Final residual = 0.000553369, No Iterations 1
GAMG:  Solving for p, Initial residual = 0.401704, Final residual = 0.0300075, No Iterations 2
time step continuity errors : sum local = 0.000408106, global = 7.33152e-05, cumulative = -0.00010462
smoothSolver:  Solving for omega, Initial residual = 0.0346685, Final residual = 0.000249829, No Iterations 1
bounding omega, min: -1.50926 max: 599.203 average: 32.3392
smoothSolver:  Solving for k, Initial residual = 0.0442933, Final residual = 0.000314266, No Iterations 1
smoothSolver:  Solving for ReThetat, Initial residual = 0.106798, Final residual = 1.06448e-07, No Iterations 1
smoothSolver:  Solving for gammaInt, Initial residual = 0.109986, Final residual = 0.099681, No Iterations 100
ExecutionTime = 34.25 s  ClockTime = 35 s

forceCoeffs forceCoeffs write:
    Coefficient	Total	Pressure	Viscous	Internal
    Cd:	-0.569001	-0.00692895	-0.562072	0
    Cd(f):	-0.280856	0.000179046	-0.281035	0
    Cd(r):	-0.288145	-0.00710799	-0.281037	0
    Cl:	-0.00218194	-0.000500554	-0.00168139	0
    Cl(f):	0.410846	0.405006	0.00584001	0
    Cl(r):	-0.413028	-0.405507	-0.00752139	0
    CmPitch:	0.411937	0.405257	0.0066807	0
    CmRoll:	0.00364496	0.00364352	1.44166e-06	0
    CmYaw:	-0.00146217	-0.0014495	-1.26726e-05	0
    Cs:	0.00618447	-5.90434e-07	0.00618506	0
    Cs(f):	0.00163006	-0.0014498	0.00307986	0
    Cs(r):	0.00455441	0.00144921	0.0031052	0

Time = 15

smoothSolver:  Solving for Ux, Initial residual = 0.0407415, Final residual = 0.000497209, No Iterations 1
smoothSolver:  Solving for Uy, Initial residual = 0.0266918, Final residual = 0.000329605, No Iterations 1
smoothSolver:  Solving for Uz, Initial residual = 0.0399897, Final residual = 0.000487678, No Iterations 1
GAMG:  Solving for p, Initial residual = 0.239469, Final residual = 0.0194953, No Iterations 2
time step continuity errors : sum local = 0.0003827, global = 5.20264e-05, cumulative = -5.25933e-05
smoothSolver:  Solving for omega, Initial residual = 0.0320861, Final residual = 0.000234384, No Iterations 1
bounding omega, min: -2.56114 max: 611.15 average: 32.2373
smoothSolver:  Solving for k, Initial residual = 0.0406249, Final residual = 0.000292224, No Iterations 1
smoothSolver:  Solving for ReThetat, Initial residual = 0.060849, Final residual = 7.0964e-08, No Iterations 1
smoothSolver:  Solving for gammaInt, Initial residual = 0.105793, Final residual = 0.097492, No Iterations 100
ExecutionTime = 36.45 s  ClockTime = 37 s

forceCoeffs forceCoeffs write:
    Coefficient	Total	Pressure	Viscous	Internal
    Cd:	-0.331966	-0.00684065	-0.325126	0
    Cd(f):	-0.162713	-0.000152592	-0.162561	0
    Cd(r):	-0.169253	-0.00668806	-0.162565	0
    Cl:	0.0186374	-0.000527653	0.0191651	0
    Cl(f):	0.211003	0.194811	0.0161923	0
    Cl(r):	-0.192366	-0.195338	0.00297273	0
    CmPitch:	0.201684	0.195075	0.0066098	0
    CmRoll:	0.00326993	0.00326773	2.20057e-06	0
    CmYaw:	-0.000921017	-0.000908347	-1.26698e-05	0
    Cs:	0.00517282	1.78572e-07	0.00517264	0
    Cs(f):	0.00166539	-0.000908258	0.00257365	0
    Cs(r):	0.00350743	0.000908436	0.00259899	0

Time = 16

smoothSolver:  Solving for Ux, Initial residual = 0.0323354, Final residual = 0.000389462, No Iterations 1
smoothSolver:  Solving for Uy, Initial residual = 0.0198016, Final residual = 0.00023948, No Iterations 1
smoothSolver:  Solving for Uz, Initial residual = 0.0312037, Final residual = 0.000374326, No Iterations 1
GAMG:  Solving for p, Initial residual = 0.142852, Final residual = 0.0136682, No Iterations 2
time step continuity errors : sum local = 0.000390916, global = 1.91293e-05, cumulative = -3.34641e-05
smoothSolver:  Solving for omega, Initial residual = 0.0298374, Final residual = 0.000220952, No Iterations 1
bounding omega, min: -2.49356 max: 621.74 average: 32.137
smoothSolver:  Solving for k, Initial residual = 0.0374691, Final residual = 0.00027312, No Iterations 1
smoothSolver:  Solving for ReThetat, Initial residual = 0.0405533, Final residual = 4.79742e-08, No Iterations 1
smoothSolver:  Solving for gammaInt, Initial residual = 0.103051, Final residual = 0.0942665, No Iterations 100
ExecutionTime = 38.82 s  ClockTime = 39 s

forceCoeffs forceCoeffs write:
    Coefficient	Total	Pressure	Viscous	Internal
    Cd:	-0.114777	-0.00668252	-0.108095	0
    Cd(f):	-0.0555295	-0.00148475	-0.0540447	0
    Cd(r):	-0.0592477	-0.00519776	-0.05405	0
    Cl:	0.0507092	-0.000547884	0.0512571	0
    Cl(f):	0.0239667	-0.00813361	0.0321003	0
    Cl(r):	0.0267425	0.00758572	0.0191568	0
    CmPitch:	-0.00138789	-0.00785966	0.00647177	0
    CmRoll:	0.00185913	0.00185651	2.62376e-06	0
    CmYaw:	-0.000434606	-0.000422124	-1.24821e-05	0
    Cs:	0.00281988	6.78836e-07	0.0028192	0
    Cs(f):	0.000975334	-0.000421784	0.00139712	0
    Cs(r):	0.00184455	0.000422463	0.00142208	0

Time = 17

smoothSolver:  Solving for Ux, Initial residual = 0.0230577, Final residual = 0.000271462, No Iterations 1
smoothSolver:  Solving for Uy, Initial residual = 0.0142234, Final residual = 0.000168426, No Iterations 1
smoothSolver:  Solving for Uz, Initial residual = 0.0228356, Final residual = 0.000266472, No Iterations 1
GAMG:  Solving for p, Initial residual = 0.106935, Final residual = 0.00472516, No Iterations 3
time step continuity errors : sum local = 0.000161013, global = 3.02324e-07, cumulative = -3.31617e-05
smoothSolver:  Solving for omega, Initial residual = 0.0278667, Final residual = 0.000208931, No Iterations 1
bounding omega, min: -0.904009 max: 630.803 average: 32.038
smoothSolver:  Solving for k, Initial residual = 0.0347355, Final residual = 0.000256496, No Iterations 1
smoothSolver:  Solving for ReThetat, Initial residual = 0.0275981, Final residual = 3.2529e-08, No Iterations 1
smoothSolver:  Solving for gammaInt, Initial residual = 0.0997785, Final residual = 0.0908571, No Iterations 100
ExecutionTime = 41.13 s  ClockTime = 42 s

forceCoeffs forceCoeffs write:
    Coefficient	Total	Pressure	Viscous	Internal
    Cd:	0.0363195	-0.00647742	0.0427969	0
    Cd(f):	0.0177372	-0.00366378	0.021401	0
    Cd(r):	0.0185823	-0.00281364	0.0213959	0
    Cl:	0.0785322	-0.000557665	0.0790899	0
    Cl(f):	-0.109835	-0.15567	0.0458346	0
    Cl(r):	0.188368	0.155112	0.0332553	0
    CmPitch:	-0.149101	-0.155391	0.00628961	0
    CmRoll:	-0.000422554	-0.000425072	2.51783e-06	0
    CmYaw:	-0.000101711	-8.9546e-05	-1.21652e-05	0
    Cs:	-0.000692767	6.91457e-07	-0.000693459	0
    Cs(f):	-0.000448095	-8.92003e-05	-0.000358894	0
    Cs(r):	-0.000244672	8.98917e-05	-0.000334564	0

Time = 18

smoothSolver:  Solving for Ux, Initial residual = 0.0195466, Final residual = 0.00023123, No Iterations 1
smoothSolver:  Solving for Uy, Initial residual = 0.0133475, Final residual = 0.000159348, No Iterations 1
smoothSolver:  Solving for Uz, Initial residual = 0.0191725, Final residual = 0.000222611, No Iterations 1
GAMG:  Solving for p, Initial residual = 0.101165, Final residual = 0.00949062, No Iterations 2
time step continuity errors : sum local = 0.000311889, global = -2.10125e-05, cumulative = -5.41743e-05
smoothSolver:  Solving for omega, Initial residual = 0.0261227, Final residual = 0.00019812, No Iterations 1
bounding omega, min: -1.62036 max: 638.227 average: 31.9399
smoothSolver:  Solving for k, Initial residual = 0.0323506, Final residual = 0.000241923, No Iterations 1
smoothSolver:  Solving for ReThetat, Initial residual = 0.0222461, Final residual = 2.20887e-08, No Iterations 1
smoothSolver:  Solving for gammaInt, Initial residual = 0.0971141, Final residual = 0.0876531, No Iterations 100
ExecutionTime = 43.37 s  ClockTime = 44 s

forceCoeffs forceCoeffs write:
    Coefficient	Total	Pressure	Viscous	Internal
    Cd:	0.0749988	-0.00626342	0.0812622	0
    Cd(f):	0.0356999	-0.00493323	0.0406332	0
    Cd(r):	0.0392988	-0.00133019	0.040629	0
    Cl:	0.0780828	-0.000557949	0.0786407	0
    Cl(f):	-0.152234	-0.197653	0.0454198	0
    Cl(r):	0.230316	0.197095	0.0332209	0
    CmPitch:	-0.191275	-0.197374	0.00609945	0
    CmRoll:	-0.00179945	-0.00180152	2.06709e-06	0
    CmYaw:	-1.84441e-05	-6.61576e-06	-1.18284e-05	0
    Cs:	-0.00262117	3.61617e-07	-0.00262153	0
    Cs(f):	-0.00132903	-6.43495e-06	-0.00132259	0
    Cs(r):	-0.00129214	6.79657e-06	-0.00129894	0

Time = 19

smoothSolver:  Solving for Ux, Initial residual = 0.0204737, Final residual = 0.000245073, No Iterations 1
smoothSolver:  Solving for Uy, Initial residual = 0.0144646, Final residual = 0.000177132, No Iterations 1
smoothSolver:  Solving for Uz, Initial residual = 0.0200358, Final residual = 0.000235901, No Iterations 1
GAMG:  Solving for p, Initial residual = 0.109013, Final residual = 0.00904482, No Iterations 2
time step continuity errors : sum local = 0.000252762, global = -3.94875e-05, cumulative = -9.36618e-05
smoothSolver:  Solving for omega, Initial residual = 0.0245714, Final residual = 0.000188324, No Iterations 1
bounding omega, min: -2.1811 max: 643.966 average: 31.8432
smoothSolver:  Solving for k, Initial residual = 0.0302562, Final residual = 0.000228895, No Iterations 1
smoothSolver:  Solving for ReThetat, Initial residual = 0.0216779, Final residual = 1.50521e-08, No Iterations 1
smoothSolver:  Solving for gammaInt, Initial residual = 0.0955804, Final residual = 0.0848305, No Iterations 100
ExecutionTime = 45.6 s  ClockTime = 46 s

forceCoeffs forceCoeffs write:
    Coefficient	Total	Pressure	Viscous	Internal
    Cd:	0.0429814	-0.00606792	0.0490493	0
    Cd(f):	0.0191393	-0.00538685	0.0245262	0
    Cd(r):	0.0238421	-0.000681068	0.0245232	0
    Cl:	0.0624678	-0.000552595	0.0630204	0
    Cl(f):	-0.132595	-0.170032	0.0374371	0
    Cl(r):	0.195062	0.169479	0.0255833	0
    CmPitch:	-0.163828	-0.169755	0.00592688	0
    CmRoll:	-0.0023514	-0.00235289	1.49288e-06	0
    CmYaw:	-8.92923e-05	-7.77388e-05	-1.15535e-05	0
    Cs:	-0.00330603	-1.21301e-07	-0.00330591	0
    Cs(f):	-0.00174231	-7.77994e-05	-0.00166451	0
    Cs(r):	-0.00156372	7.76781e-05	-0.0016414	0

Time = 20

smoothSolver:  Solving for Ux, Initial residual = 0.0203719, Final residual = 0.000244304, No Iterations 1
smoothSolver:  Solving for Uy, Initial residual = 0.013538, Final residual = 0.000166583, No Iterations 1
smoothSolver:  Solving for Uz, Initial residual = 0.0201821, Final residual = 0.000236904, No Iterations 1
GAMG:  Solving for p, Initial residual = 0.126292, Final residual = 0.0102814, No Iterations 2
time step continuity errors : sum local = 0.000218705, global = -4.16138e-05, cumulative = -0.000135276
smoothSolver:  Solving for omega, Initial residual = 0.0231715, Final residual = 0.000179284, No Iterations 1
bounding omega, min: -2.48833 max: 648.118 average: 31.7469
smoothSolver:  Solving for k, Initial residual = 0.0284, Final residual = 0.000217182, No Iterations 1
smoothSolver:  Solving for ReThetat, Initial residual = 0.0211916, Final residual = 1.01233e-08, No Iterations 1
smoothSolver:  Solving for gammaInt, Initial residual = 0.0912427, Final residual = 0.0827754, No Iterations 100
ExecutionTime = 47.83 s  ClockTime = 48 s

forceCoeffs forceCoeffs write:
    Coefficient	Total	Pressure	Viscous	Internal
    Cd:	-0.0294052	-0.00590483	-0.0235003	0
    Cd(f):	-0.0168221	-0.00507294	-0.0117492	0
    Cd(r):	-0.0125831	-0.000831891	-0.0117512	0
    Cl:	0.03592	-0.00054613	0.0364662	0
    Cl(f):	-0.0766478	-0.100666	0.0240177	0
    Cl(r):	0.112568	0.100119	0.0124484	0
    CmPitch:	-0.0946079	-0.100392	0.00578463	0
    CmRoll:	-0.00211953	-0.00212052	9.93164e-07	0
    CmYaw:	-0.000246312	-0.00023496	-1.13513e-05	0
    Cs:	-0.00287871	-5.83968e-07	-0.00287812	0
    Cs(f):	-0.00168566	-0.000235252	-0.00145041	0
    Cs(r):	-0.00119304	0.000234668	-0.00142771	0

Time = 21

smoothSolver:  Solving for Ux, Initial residual = 0.0189683, Final residual = 0.000226679, No Iterations 1
smoothSolver:  Solving for Uy, Initial residual = 0.0111592, Final residual = 0.000134352, No Iterations 1
smoothSolver:  Solving for Uz, Initial residual = 0.0184834, Final residual = 0.000214249, No Iterations 1
GAMG:  Solving for p, Initial residual = 0.179579, Final residual = 0.0157734, No Iterations 2
time step continuity errors : sum local = 0.000207929, global = -2.38595e-05, cumulative = -0.000159135
smoothSolver:  Solving for omega, Initial residual = 0.0219001, Final residual = 0.000171021, No Iterations 1
bounding omega, min: -2.0502 max: 650.841 average: 31.6516
smoothSolver:  Solving for k, Initial residual = 0.0267506, Final residual = 0.000206542, No Iterations 1
smoothSolver:  Solving for ReThetat, Initial residual = 0.02187, Final residual = 7.34529e-09, No Iterations 1
smoothSolver:  Solving for gammaInt, Initial residual = 0.0894451, Final residual = 0.080224, No Iterations 100
ExecutionTime = 50.02 s  ClockTime = 51 s

forceCoeffs forceCoeffs write:
    Coefficient	Total	Pressure	Viscous	Internal
    Cd:	-0.110984	-0.00577686	-0.105207	0
    Cd(f):	-0.0568202	-0.00421747	-0.0526027	0
    Cd(r):	-0.0541635	-0.00155939	-0.0526042	0
    Cl:	0.0106567	-0.000542481	0.0111991	0
    Cl(f):	-0.00930215	-0.0205766	0.0112744	0
    Cl(r):	0.0199588	0.0200341	-7.52667e-05	0
    CmPitch:	-0.0146305	-0.0203053	0.00567484	0
    CmRoll:	-0.00132833	-0.00132904	7.09859e-07	0
    CmYaw:	-0.000422571	-0.00041135	-1.1221e-05	0
    Cs:	-0.00170605	-8.90655e-07	-0.00170516	0
    Cs(f):	-0.0012756	-0.000411795	-0.000863803	0
    Cs(r):	-0.000430456	0.000410905	-0.000841361	0

Time = 22

smoothSolver:  Solving for Ux, Initial residual = 0.0163507, Final residual = 0.00019284, No Iterations 1
smoothSolver:  Solving for Uy, Initial residual = 0.00886501, Final residual = 0.000104183, No Iterations 1
smoothSolver:  Solving for Uz, Initial residual = 0.0157562, Final residual = 0.000177538, No Iterations 1
GAMG:  Solving for p, Initial residual = 0.172728, Final residual = 0.0159732, No Iterations 2
time step continuity errors : sum local = 0.000197436, global = -4.90336e-06, cumulative = -0.000164038
smoothSolver:  Solving for omega, Initial residual = 0.020743, Final residual = 0.000163461, No Iterations 1
bounding omega, min: -2.37564 max: 652.361 average: 31.5572
smoothSolver:  Solving for k, Initial residual = 0.0252626, Final residual = 0.000196826, No Iterations 1
smoothSolver:  Solving for ReThetat, Initial residual = 0.0225984, Final residual = 5.65883e-09, No Iterations 1
smoothSolver:  Solving for gammaInt, Initial residual = 0.0877669, Final residual = 0.0788535, No Iterations 100
ExecutionTime = 52.21 s  ClockTime = 53 s

forceCoeffs forceCoeffs write:
    Coefficient	Total	Pressure	Viscous	Internal
    Cd:	-0.175556	-0.00567744	-0.169879	0
    Cd(f):	-0.0881234	-0.00318457	-0.0849388	0
    Cd(r):	-0.0874331	-0.00249286	-0.0849402	0
    Cl:	-0.00102198	-0.000543856	-0.000478127	0
    Cl(f):	0.0485669	0.0432151	0.00535179	0
    Cl(r):	-0.0495889	-0.0437589	-0.00582992	0
    CmPitch:	0.0490779	0.043487	0.00559085	0
    CmRoll:	-0.000345159	-0.000345853	6.94843e-07	0
    CmYaw:	-0.000561692	-0.000550554	-1.1138e-05	0
    Cs:	-0.000276697	-9.84112e-07	-0.000275713	0
    Cs(f):	-0.00070004	-0.000551046	-0.000148994	0
    Cs(r):	0.000423343	0.000550062	-0.000126718	0

Time = 23

smoothSolver:  Solving for Ux, Initial residual = 0.0145093, Final residual = 0.000170578, No Iterations 1
smoothSolver:  Solving for Uy, Initial residual = 0.0083023, Final residual = 9.80698e-05, No Iterations 1
smoothSolver:  Solving for Uz, Initial residual = 0.0140266, Final residual = 0.00015508, No Iterations 1
GAMG:  Solving for p, Initial residual = 0.122963, Final residual = 0.0117718, No Iterations 2
time step continuity errors : sum local = 0.000186081, global = 7.41012e-06, cumulative = -0.000156628
smoothSolver:  Solving for omega, Initial residual = 0.0196919, Final residual = 0.000156485, No Iterations 1
bounding omega, min: -0.825195 max: 652.929 average: 31.4636
smoothSolver:  Solving for k, Initial residual = 0.0239104, Final residual = 0.000187934, No Iterations 1
smoothSolver:  Solving for ReThetat, Initial residual = 0.0228678, Final residual = 4.46164e-09, No Iterations 1
smoothSolver:  Solving for gammaInt, Initial residual = 0.0847847, Final residual = 0.0763937, No Iterations 100
ExecutionTime = 54.42 s  ClockTime = 55 s

forceCoeffs forceCoeffs write:
    Coefficient	Total	Pressure	Viscous	Internal
    Cd:	-0.210103	-0.00559535	-0.204507	0
    Cd(f):	-0.104574	-0.002321	-0.102253	0
    Cd(r):	-0.105529	-0.00327435	-0.102255	0
    Cl:	0.00485195	-0.00055031	0.00540226	0
    Cl(f):	0.0851093	0.0768862	0.00822313	0
    Cl(r):	-0.0802574	-0.0774365	-0.00282087	0
    CmPitch:	0.0826834	0.0771614	0.005522	0
    CmRoll:	0.000477577	0.000476672	9.04776e-07	0
    CmYaw:	-0.000636097	-0.000625012	-1.10853e-05	0
    Cs:	0.000963249	-8.90878e-07	0.00096414	0
    Cs(f):	-0.000154473	-0.000625457	0.000470985	0
    Cs(r):	0.00111772	0.000624567	0.000493155	0

Time = 24

smoothSolver:  Solving for Ux, Initial residual = 0.0141186, Final residual = 0.000167151, No Iterations 1
smoothSolver:  Solving for Uy, Initial residual = 0.00856037, Final residual = 0.000102136, No Iterations 1
smoothSolver:  Solving for Uz, Initial residual = 0.0134995, Final residual = 0.00015239, No Iterations 1
GAMG:  Solving for p, Initial residual = 0.11407, Final residual = 0.0105977, No Iterations 2
time step continuity errors : sum local = 0.000162024, global = 1.33979e-05, cumulative = -0.00014323
smoothSolver:  Solving for omega, Initial residual = 0.0187323, Final residual = 0.000150061, No Iterations 1
bounding omega, min: -2.97443 max: 652.776 average: 31.3707
smoothSolver:  Solving for k, Initial residual = 0.0226789, Final residual = 0.000179791, No Iterations 1
smoothSolver:  Solving for ReThetat, Initial residual = 0.0229733, Final residual = 3.95555e-09, No Iterations 1
smoothSolver:  Solving for gammaInt, Initial residual = 0.0832469, Final residual = 0.075176, No Iterations 100
ExecutionTime = 56.74 s  ClockTime = 57 s

forceCoeffs forceCoeffs write:
    Coefficient	Total	Pressure	Viscous	Internal
    Cd:	-0.214886	-0.0055195	-0.209366	0
    Cd(f):	-0.106555	-0.00187301	-0.104682	0
    Cd(r):	-0.108331	-0.00364649	-0.104684	0
    Cl:	0.023117	-0.000560234	0.0236773	0
    Cl(f):	0.0977587	0.0804622	0.0172965	0
    Cl(r):	-0.0746417	-0.0810224	0.00638074	0
    CmPitch:	0.0862002	0.0807423	0.00545789	0
    CmRoll:	0.000887977	0.000886741	1.23592e-06	0
    CmYaw:	-0.00064633	-0.000635299	-1.10315e-05	0
    Cs:	0.00168561	-6.88046e-07	0.0016863	0
    Cs(f):	0.000196474	-0.000635643	0.000832116	0
    Cs(r):	0.00148913	0.000634955	0.000854179	0

Time = 25

smoothSolver:  Solving for Ux, Initial residual = 0.0137489, Final residual = 0.000163635, No Iterations 1
smoothSolver:  Solving for Uy, Initial residual = 0.00848898, Final residual = 0.000102001, No Iterations 1
smoothSolver:  Solving for Uz, Initial residual = 0.0132123, Final residual = 0.000152261, No Iterations 1
GAMG:  Solving for p, Initial residual = 0.131616, Final residual = 0.011432, No Iterations 2
time step continuity errors : sum local = 0.000134354, global = 2.35598e-05, cumulative = -0.000119671
smoothSolver:  Solving for omega, Initial residual = 0.0178504, Final residual = 0.000144194, No Iterations 1
smoothSolver:  Solving for k, Initial residual = 0.0215552, Final residual = 0.00017228, No Iterations 1
smoothSolver:  Solving for ReThetat, Initial residual = 0.0228981, Final residual = 3.83038e-09, No Iterations 1
smoothSolver:  Solving for gammaInt, Initial residual = 0.0814727, Final residual = 0.0734298, No Iterations 100
ExecutionTime = 59.05 s  ClockTime = 60 s

forceCoeffs forceCoeffs write:
    Coefficient	Total	Pressure	Viscous	Internal
    Cd:	-0.199088	-0.00544205	-0.193646	0
    Cd(f):	-0.0987465	-0.00192494	-0.0968216	0
    Cd(r):	-0.100342	-0.00351711	-0.0968247	0
    Cl:	0.045196	-0.000571396	0.0457674	0
    Cl(f):	0.0915869	0.063312	0.0282749	0
    Cl(r):	-0.0463909	-0.0638833	0.0174924	0
    CmPitch:	0.0689889	0.0635976	0.00539125	0
    CmRoll:	0.000797636	0.000796082	1.55442e-06	0
    CmYaw:	-0.000612774	-0.000601811	-1.09637e-05	0
    Cs:	0.00174868	-4.87084e-07	0.00174917	0
    Cs(f):	0.000261567	-0.000602054	0.000863621	0
    Cs(r):	0.00148712	0.000601567	0.000885548	0

Time = 26

smoothSolver:  Solving for Ux, Initial residual = 0.0132257, Final residual = 0.000158195, No Iterations 1
smoothSolver:  Solving for Uy, Initial residual = 0.00786253, Final residual = 9.37145e-05, No Iterations 1
smoothSolver:  Solving for Uz, Initial residual = 0.01243, Final residual = 0.000144132, No Iterations 1
GAMG:  Solving for p, Initial residual = 0.136381, Final residual = 0.011668, No Iterations 2
time step continuity errors : sum local = 0.000117206, global = 2.06447e-05, cumulative = -9.9026e-05
smoothSolver:  Solving for omega, Initial residual = 0.0170346, Final residual = 0.000138757, No Iterations 1
smoothSolver:  Solving for k, Initial residual = 0.0205213, Final residual = 0.000165289, No Iterations 1
smoothSolver:  Solving for ReThetat, Initial residual = 0.0226098, Final residual = 3.72538e-09, No Iterations 1
smoothSolver:  Solving for gammaInt, Initial residual = 0.0805468, Final residual = 0.0719523, No Iterations 100
ExecutionTime = 61.26 s  ClockTime = 62 s

forceCoeffs forceCoeffs write:
    Coefficient	Total	Pressure	Viscous	Internal
    Cd:	-0.172529	-0.0053591	-0.16717	0
    Cd(f):	-0.0859041	-0.00232089	-0.0835832	0
    Cd(r):	-0.0866249	-0.00303821	-0.0835867	0
    Cl:	0.0650624	-0.000581803	0.0656442	0
    Cl(f):	0.0740214	0.0358808	0.0381405	0
    Cl(r):	-0.00895899	-0.0364626	0.0275037	0
    CmPitch:	0.0414902	0.0361717	0.00531845	0
    CmRoll:	0.000360415	0.00035866	1.75472e-06	0
    CmYaw:	-0.000556038	-0.000545163	-1.08755e-05	0
    Cs:	0.00131727	-3.79411e-07	0.00131765	0
    Cs(f):	0.000102596	-0.000545352	0.000647949	0
    Cs(r):	0.00121467	0.000544973	0.0006697	0

Time = 27

smoothSolver:  Solving for Ux, Initial residual = 0.0118355, Final residual = 0.000141061, No Iterations 1
smoothSolver:  Solving for Uy, Initial residual = 0.00675462, Final residual = 7.89676e-05, No Iterations 1
smoothSolver:  Solving for Uz, Initial residual = 0.0110177, Final residual = 0.000126436, No Iterations 1
GAMG:  Solving for p, Initial residual = 0.0815971, Final residual = 0.00710234, No Iterations 2
time step continuity errors : sum local = 0.000107512, global = 9.95701e-06, cumulative = -8.9069e-05
smoothSolver:  Solving for omega, Initial residual = 0.0162865, Final residual = 0.000133754, No Iterations 1
bounding omega, min: -3.07419 max: 649.754 average: 31.0976
smoothSolver:  Solving for k, Initial residual = 0.0195708, Final residual = 0.000158864, No Iterations 1
smoothSolver:  Solving for ReThetat, Initial residual = 0.0221893, Final residual = 3.72911e-09, No Iterations 1
smoothSolver:  Solving for gammaInt, Initial residual = 0.0787691, Final residual = 0.0704845, No Iterations 100
ExecutionTime = 63.64 s  ClockTime = 64 s

forceCoeffs forceCoeffs write:
    Coefficient	Total	Pressure	Viscous	Internal
    Cd:	-0.145361	-0.00527056	-0.14009	0
    Cd(f):	-0.0728868	-0.00284346	-0.0700433	0
    Cd(r):	-0.072474	-0.00242709	-0.0700469	0
    Cl:	0.0763217	-0.000590206	0.0769119	0
    Cl(f):	0.0526151	0.00891977	0.0436953	0
    Cl(r):	0.0237066	-0.00950998	0.0332166	0
    CmPitch:	0.0144542	0.00921487	0.00523934	0
    CmRoll:	-0.000206398	-0.000208186	1.78763e-06	0
    CmYaw:	-0.000497286	-0.000486513	-1.07724e-05	0
    Cs:	0.000643484	-4.09455e-07	0.000643893	0
    Cs(f):	-0.000175544	-0.000486718	0.000311174	0
    Cs(r):	0.000819028	0.000486309	0.000332719	0

Time = 28

smoothSolver:  Solving for Ux, Initial residual = 0.00967626, Final residual = 0.000113706, No Iterations 1
smoothSolver:  Solving for Uy, Initial residual = 0.00541421, Final residual = 6.20635e-05, No Iterations 1
smoothSolver:  Solving for Uz, Initial residual = 0.00920639, Final residual = 0.000102899, No Iterations 1
GAMG:  Solving for p, Initial residual = 0.0589436, Final residual = 0.00504456, No Iterations 2
time step continuity errors : sum local = 9.72561e-05, global = 1.24277e-06, cumulative = -8.78262e-05
smoothSolver:  Solving for omega, Initial residual = 0.0155936, Final residual = 0.000129108, No Iterations 1
bounding omega, min: -1.34493 max: 648.326 average: 31.0085
smoothSolver:  Solving for k, Initial residual = 0.0186945, Final residual = 0.000152959, No Iterations 1
smoothSolver:  Solving for ReThetat, Initial residual = 0.0216993, Final residual = 3.98729e-09, No Iterations 1
smoothSolver:  Solving for gammaInt, Initial residual = 0.0777353, Final residual = 0.0688815, No Iterations 100
ExecutionTime = 66.26 s  ClockTime = 67 s

forceCoeffs forceCoeffs write:
    Coefficient	Total	Pressure	Viscous	Internal
    Cd:	-0.125517	-0.00517919	-0.120338	0
    Cd(f):	-0.0634542	-0.00328691	-0.0601673	0
    Cd(r):	-0.0620629	-0.00189228	-0.0601707	0
    Cl:	0.0767835	-0.000596301	0.0773798	0
    Cl(f):	0.0342831	-0.00956336	0.0438464	0
    Cl(r):	0.0425005	0.00896706	0.0335334	0
    CmPitch:	-0.00410871	-0.00926521	0.0051565	0
    CmRoll:	-0.000695648	-0.000697314	1.66623e-06	0
    CmYaw:	-0.000453292	-0.000442635	-1.06573e-05	0
    Cs:	-1.99469e-05	-5.67711e-07	-1.93792e-05	0
    Cs(f):	-0.000463266	-0.000442919	-2.03469e-05	0
    Cs(r):	0.000443319	0.000442351	9.67671e-07	0

Time = 29

smoothSolver:  Solving for Ux, Initial residual = 0.00807291, Final residual = 9.3967e-05, No Iterations 1
smoothSolver:  Solving for Uy, Initial residual = 0.00449136, Final residual = 5.06223e-05, No Iterations 1
smoothSolver:  Solving for Uz, Initial residual = 0.00789421, Final residual = 8.60035e-05, No Iterations 1
GAMG:  Solving for p, Initial residual = 0.0496324, Final residual = 0.00435983, No Iterations 2
time step continuity errors : sum local = 9.22096e-05, global = -3.1136e-06, cumulative = -9.09398e-05
smoothSolver:  Solving for omega, Initial residual = 0.0149522, Final residual = 0.000124785, No Iterations 1
smoothSolver:  Solving for k, Initial residual = 0.017888, Final residual = 0.000147502, No Iterations 1
smoothSolver:  Solving for ReThetat, Initial residual = 0.0211441, Final residual = 4.19104e-09, No Iterations 1
smoothSolver:  Solving for gammaInt, Initial residual = 0.0752037, Final residual = 0.0675959, No Iterations 100
ExecutionTime = 68.9 s  ClockTime = 70 s

forceCoeffs forceCoeffs write:
    Coefficient	Total	Pressure	Viscous	Internal
    Cd:	-0.116588	-0.00508908	-0.111499	0
    Cd(f):	-0.0592655	-0.00351726	-0.0557482	0
    Cd(r):	-0.057323	-0.00157182	-0.0557512	0
    Cl:	0.0692195	-0.000600515	0.06982	0
    Cl(f):	0.0235672	-0.0164166	0.0399838	0
    Cl(r):	0.0456523	0.0158161	0.0298362	0
    CmPitch:	-0.0110426	-0.0161164	0.00507382	0
    CmRoll:	-0.000971268	-0.000972721	1.45371e-06	0
    CmYaw:	-0.000432105	-0.000421564	-1.05412e-05	0
    Cs:	-0.000486865	-7.99067e-07	-0.000486066	0
    Cs(f):	-0.000675538	-0.000421964	-0.000253574	0
    Cs(r):	0.000188673	0.000421164	-0.000232492	0

Time = 30

smoothSolver:  Solving for Ux, Initial residual = 0.00703927, Final residual = 8.1479e-05, No Iterations 1
smoothSolver:  Solving for Uy, Initial residual = 0.00418478, Final residual = 4.75085e-05, No Iterations 1
smoothSolver:  Solving for Uz, Initial residual = 0.00723191, Final residual = 7.78349e-05, No Iterations 1
GAMG:  Solving for p, Initial residual = 0.0466369, Final residual = 0.00399864, No Iterations 2
time step continuity errors : sum local = 8.21093e-05, global = -8.43308e-06, cumulative = -9.93729e-05
smoothSolver:  Solving for omega, Initial residual = 0.0143551, Final residual = 0.000120729, No Iterations 1
bounding omega, min: -1.23151 max: 645.428 average: 30.8318
smoothSolver:  Solving for k, Initial residual = 0.0171398, Final residual = 0.000142416, No Iterations 1
smoothSolver:  Solving for ReThetat, Initial residual = 0.0205418, Final residual = 4.31634e-09, No Iterations 1
smoothSolver:  Solving for gammaInt, Initial residual = 0.0741983, Final residual = 0.0661234, No Iterations 100
ExecutionTime = 71.15 s  ClockTime = 72 s

forceCoeffs forceCoeffs write:
    Coefficient	Total	Pressure	Viscous	Internal
    Cd:	-0.117612	-0.00500343	-0.112609	0
    Cd(f):	-0.0597805	-0.00347719	-0.0563033	0
    Cd(r):	-0.057832	-0.00152623	-0.0563057	0
    Cl:	0.0593895	-0.000603869	0.0599934	0
    Cl(f):	0.0218001	-0.0131908	0.034991	0
    Cl(r):	0.0375894	0.012587	0.0250024	0
    CmPitch:	-0.00789464	-0.0128889	0.00499426	0
    CmRoll:	-0.000974256	-0.000975479	1.22363e-06	0
    CmYaw:	-0.000431764	-0.000421345	-1.04197e-05	0
    Cs:	-0.000647303	-1.04341e-06	-0.000646259	0
    Cs(f):	-0.000755416	-0.000421866	-0.000333549	0
    Cs(r):	0.000108113	0.000420823	-0.00031271	0

Time = 31

smoothSolver:  Solving for Ux, Initial residual = 0.00640283, Final residual = 7.34772e-05, No Iterations 1
smoothSolver:  Solving for Uy, Initial residual = 0.00399283, Final residual = 4.54803e-05, No Iterations 1
smoothSolver:  Solving for Uz, Initial residual = 0.00689534, Final residual = 7.36003e-05, No Iterations 1
GAMG:  Solving for p, Initial residual = 0.0477192, Final residual = 0.00400158, No Iterations 2
time step continuity errors : sum local = 7.33307e-05, global = -1.36009e-05, cumulative = -0.000112974
smoothSolver:  Solving for omega, Initial residual = 0.0137975, Final residual = 0.000116963, No Iterations 1
bounding omega, min: -0.49978 max: 644.134 average: 30.7448
smoothSolver:  Solving for k, Initial residual = 0.0164487, Final residual = 0.000137686, No Iterations 1
smoothSolver:  Solving for ReThetat, Initial residual = 0.0199147, Final residual = 4.37962e-09, No Iterations 1
smoothSolver:  Solving for gammaInt, Initial residual = 0.07321, Final residual = 0.0653638, No Iterations 100
ExecutionTime = 73.43 s  ClockTime = 74 s

forceCoeffs forceCoeffs write:
    Coefficient	Total	Pressure	Viscous	Internal
    Cd:	-0.12539	-0.00492416	-0.120466	0
    Cd(f):	-0.0634555	-0.00322359	-0.0602319	0
    Cd(r):	-0.0619346	-0.00170057	-0.060234	0
    Cl:	0.0516871	-0.000607216	0.0522943	0
    Cl(f):	0.027514	-0.00355294	0.031067	0
    Cl(r):	0.0241731	0.00294573	0.0212273	0
    CmPitch:	0.00167048	-0.00324934	0.00491982	0
    CmRoll:	-0.000760468	-0.00076151	1.04241e-06	0
    CmYaw:	-0.000445712	-0.000435412	-1.03003e-05	0
    Cs:	-0.000522868	-1.24568e-06	-0.000521622	0
    Cs(f):	-0.000707146	-0.000436035	-0.000271111	0
    Cs(r):	0.000184278	0.000434789	-0.000250511	0

Time = 32

smoothSolver:  Solving for Ux, Initial residual = 0.00601365, Final residual = 6.87639e-05, No Iterations 1
smoothSolver:  Solving for Uy, Initial residual = 0.00385285, Final residual = 4.40901e-05, No Iterations 1
smoothSolver:  Solving for Uz, Initial residual = 0.00657396, Final residual = 6.97797e-05, No Iterations 1
GAMG:  Solving for p, Initial residual = 0.0521663, Final residual = 0.00437612, No Iterations 2
time step continuity errors : sum local = 6.71975e-05, global = -1.09325e-05, cumulative = -0.000123906
smoothSolver:  Solving for omega, Initial residual = 0.0132772, Final residual = 0.000113436, No Iterations 1
smoothSolver:  Solving for k, Initial residual = 0.0158044, Final residual = 0.00013324, No Iterations 1
smoothSolver:  Solving for ReThetat, Initial residual = 0.0192837, Final residual = 4.39799e-09, No Iterations 1
smoothSolver:  Solving for gammaInt, Initial residual = 0.0718495, Final residual = 0.0643121, No Iterations 100
ExecutionTime = 75.62 s  ClockTime = 77 s

forceCoeffs forceCoeffs write:
    Coefficient	Total	Pressure	Viscous	Internal
    Cd:	-0.136503	-0.00485185	-0.131651	0
    Cd(f):	-0.0687049	-0.00288046	-0.0658244	0
    Cd(r):	-0.0677977	-0.00197139	-0.0658263	0
    Cl:	0.0487604	-0.000611202	0.0493716	0
    Cl(f):	0.0382609	0.00872389	0.029537	0
    Cl(r):	0.0104995	-0.00933509	0.0198346	0
    CmPitch:	0.0138807	0.00902949	0.00485121	0
    CmRoll:	-0.000453593	-0.000454538	9.45302e-07	0
    CmYaw:	-0.000467144	-0.000456975	-1.01684e-05	0
    Cs:	-0.000223284	-1.37136e-06	-0.000221913	0
    Cs(f):	-0.000578786	-0.000457661	-0.000121125	0
    Cs(r):	0.000355502	0.00045629	-0.000100788	0

Time = 33

smoothSolver:  Solving for Ux, Initial residual = 0.00594275, Final residual = 6.76432e-05, No Iterations 1
smoothSolver:  Solving for Uy, Initial residual = 0.0038333, Final residual = 4.42836e-05, No Iterations 1
smoothSolver:  Solving for Uz, Initial residual = 0.00636443, Final residual = 6.77541e-05, No Iterations 1
GAMG:  Solving for p, Initial residual = 0.0603891, Final residual = 0.00499118, No Iterations 2
time step continuity errors : sum local = 6.12396e-05, global = -5.962e-06, cumulative = -0.000129868
smoothSolver:  Solving for omega, Initial residual = 0.0127882, Final residual = 0.000110073, No Iterations 1
bounding omega, min: -0.675108 max: 670.392 average: 30.5723
smoothSolver:  Solving for k, Initial residual = 0.0152014, Final residual = 0.000129101, No Iterations 1
smoothSolver:  Solving for ReThetat, Initial residual = 0.0186592, Final residual = 4.38458e-09, No Iterations 1
smoothSolver:  Solving for gammaInt, Initial residual = 0.0706395, Final residual = 0.0624031, No Iterations 100
ExecutionTime = 77.72 s  ClockTime = 79 s

forceCoeffs forceCoeffs write:
    Coefficient	Total	Pressure	Viscous	Internal
    Cd:	-0.147305	-0.00478591	-0.142519	0
    Cd(f):	-0.0738291	-0.00257071	-0.0712584	0
    Cd(r):	-0.0734755	-0.0022152	-0.0712603	0
    Cl:	0.051734	-0.000616099	0.0523501	0
    Cl(f):	0.0509018	0.0199387	0.0309631	0
    Cl(r):	0.000832181	-0.0205548	0.021387	0
    CmPitch:	0.0250348	0.0202468	0.00478803	0
    CmRoll:	-0.000176822	-0.000177759	9.36914e-07	0
    CmYaw:	-0.00048853	-0.000478505	-1.00252e-05	0
    Cs:	0.000121816	-1.42001e-06	0.000123236	0
    Cs(f):	-0.000427622	-0.000479215	5.15928e-05	0
    Cs(r):	0.000549438	0.000477795	7.16433e-05	0

Time = 34

smoothSolver:  Solving for Ux, Initial residual = 0.00601945, Final residual = 6.8836e-05, No Iterations 1
smoothSolver:  Solving for Uy, Initial residual = 0.00382733, Final residual = 4.44898e-05, No Iterations 1
smoothSolver:  Solving for Uz, Initial residual = 0.006284, Final residual = 6.80931e-05, No Iterations 1
GAMG:  Solving for p, Initial residual = 0.0693856, Final residual = 0.00566275, No Iterations 2
time step continuity errors : sum local = 5.65622e-05, global = -2.0582e-06, cumulative = -0.000131927
smoothSolver:  Solving for omega, Initial residual = 0.0123295, Final residual = 0.00010684, No Iterations 1
smoothSolver:  Solving for k, Initial residual = 0.01464, Final residual = 0.000125254, No Iterations 1
smoothSolver:  Solving for ReThetat, Initial residual = 0.0180476, Final residual = 4.3496e-09, No Iterations 1
smoothSolver:  Solving for gammaInt, Initial residual = 0.0689089, Final residual = 0.0616168, No Iterations 100
ExecutionTime = 79.8 s  ClockTime = 81 s

forceCoeffs forceCoeffs write:
    Coefficient	Total	Pressure	Viscous	Internal
    Cd:	-0.155139	-0.00472484	-0.150414	0
    Cd(f):	-0.0775836	-0.00237743	-0.0752062	0
    Cd(r):	-0.0775556	-0.00234741	-0.0752082	0
    Cl:	0.0594721	-0.000621872	0.060094	0
    Cl(f):	0.0624411	0.0276652	0.034776	0
    Cl(r):	-0.00296903	-0.028287	0.025318	0
    CmPitch:	0.0327051	0.0279761	0.00472899	0
    CmRoll:	-1.4018e-05	-1.5014e-05	9.95987e-07	0
    CmYaw:	-0.000504238	-0.000494349	-9.88904e-06	0
    Cs:	0.000403037	-1.41575e-06	0.000404453	0
    Cs(f):	-0.00030272	-0.000495057	0.000192337	0
    Cs(r):	0.000705756	0.000493641	0.000212115	0

Time = 35

smoothSolver:  Solving for Ux, Initial residual = 0.0061028, Final residual = 7.05605e-05, No Iterations 1
smoothSolver:  Solving for Uy, Initial residual = 0.00380507, Final residual = 4.44574e-05, No Iterations 1
smoothSolver:  Solving for Uz, Initial residual = 0.00618944, Final residual = 6.85083e-05, No Iterations 1
GAMG:  Solving for p, Initial residual = 0.0713357, Final residual = 0.00597972, No Iterations 2
time step continuity errors : sum local = 5.44491e-05, global = 1.4974e-06, cumulative = -0.000130429
smoothSolver:  Solving for omega, Initial residual = 0.0118956, Final residual = 0.000103737, No Iterations 1
smoothSolver:  Solving for k, Initial residual = 0.0141117, Final residual = 0.000121589, No Iterations 1
smoothSolver:  Solving for ReThetat, Initial residual = 0.0174529, Final residual = 4.29971e-09, No Iterations 1
smoothSolver:  Solving for gammaInt, Initial residual = 0.0682522, Final residual = 0.0609499, No Iterations 100
ExecutionTime = 81.87 s  ClockTime = 83 s

forceCoeffs forceCoeffs write:
    Coefficient	Total	Pressure	Viscous	Internal
    Cd:	-0.159065	-0.00466711	-0.154398	0
    Cd(f):	-0.07953	-0.00233195	-0.0771981	0
    Cd(r):	-0.0795354	-0.00233516	-0.0772002	0
    Cl:	0.0693303	-0.000628057	0.0699583	0
    Cl(f):	0.0709477	0.0312957	0.039652	0
    Cl(r):	-0.00161744	-0.0319237	0.0303063	0
    CmPitch:	0.0362826	0.0316097	0.00467287	0
    CmRoll:	2.69448e-06	1.60795e-06	1.08653e-06	0
    CmYaw:	-0.000512144	-0.000502382	-9.76107e-06	0
    Cs:	0.000552909	-1.38975e-06	0.000554298	0
    Cs(f):	-0.000235689	-0.000503077	0.000267388	0
    Cs(r):	0.000788598	0.000501688	0.00028691	0

Time = 36

smoothSolver:  Solving for Ux, Initial residual = 0.00609937, Final residual = 7.11892e-05, No Iterations 1
smoothSolver:  Solving for Uy, Initial residual = 0.00377028, Final residual = 4.41599e-05, No Iterations 1
smoothSolver:  Solving for Uz, Initial residual = 0.00608129, Final residual = 6.82977e-05, No Iterations 1
GAMG:  Solving for p, Initial residual = 0.064592, Final residual = 0.0052502, No Iterations 2
time step continuity errors : sum local = 4.9438e-05, global = 6.63912e-06, cumulative = -0.00012379
smoothSolver:  Solving for omega, Initial residual = 0.0114855, Final residual = 0.000100772, No Iterations 1
smoothSolver:  Solving for k, Initial residual = 0.0136167, Final residual = 0.000118089, No Iterations 1
smoothSolver:  Solving for ReThetat, Initial residual = 0.016878, Final residual = 4.23979e-09, No Iterations 1
smoothSolver:  Solving for gammaInt, Initial residual = 0.0677041, Final residual = 0.0599161, No Iterations 100
ExecutionTime = 83.95 s  ClockTime = 85 s

forceCoeffs forceCoeffs write:
    Coefficient	Total	Pressure	Viscous	Internal
    Cd:	-0.159692	-0.00461142	-0.155081	0
    Cd(f):	-0.079952	-0.00241288	-0.0775392	0
    Cd(r):	-0.07974	-0.00219855	-0.0775415	0
    Cl:	0.0787451	-0.000634171	0.0793792	0
    Cl(f):	0.0760232	0.031715	0.0443082	0
    Cl(r):	0.00272189	-0.0323491	0.035071	0
    CmPitch:	0.0366506	0.0320321	0.00461859	0
    CmRoll:	-0.000105993	-0.000107164	1.17087e-06	0
    CmYaw:	-0.000513357	-0.000503715	-9.64176e-06	0
    Cs:	0.000560432	-1.37217e-06	0.000561804	0
    Cs(f):	-0.000233141	-0.000504401	0.00027126	0
    Cs(r):	0.000793573	0.000503029	0.000290544	0

Time = 37

smoothSolver:  Solving for Ux, Initial residual = 0.00606205, Final residual = 7.13375e-05, No Iterations 1
smoothSolver:  Solving for Uy, Initial residual = 0.00368711, Final residual = 4.31772e-05, No Iterations 1
smoothSolver:  Solving for Uz, Initial residual = 0.00598296, Final residual = 6.76175e-05, No Iterations 1
GAMG:  Solving for p, Initial residual = 0.053828, Final residual = 0.004306, No Iterations 2
time step continuity errors : sum local = 4.55153e-05, global = 9.9249e-06, cumulative = -0.000113865
smoothSolver:  Solving for omega, Initial residual = 0.0111014, Final residual = 9.79356e-05, No Iterations 1
smoothSolver:  Solving for k, Initial residual = 0.0131536, Final residual = 0.000114735, No Iterations 1
smoothSolver:  Solving for ReThetat, Initial residual = 0.0163246, Final residual = 4.17327e-09, No Iterations 1
smoothSolver:  Solving for gammaInt, Initial residual = 0.0666708, Final residual = 0.0588609, No Iterations 100
ExecutionTime = 86.07 s  ClockTime = 87 s

forceCoeffs forceCoeffs write:
    Coefficient	Total	Pressure	Viscous	Internal
    Cd:	-0.158242	-0.0045569	-0.153685	0
    Cd(f):	-0.0794136	-0.00257244	-0.0768412	0
    Cd(r):	-0.0788281	-0.00198446	-0.0768437	0
    Cl:	0.0865772	-0.000639927	0.0872171	0
    Cl(f):	0.078483	0.0303092	0.0481738	0
    Cl(r):	0.00809421	-0.0309491	0.0390433	0
    CmPitch:	0.0351944	0.0306292	0.00456522	0
    CmRoll:	-0.000292759	-0.00029399	1.23152e-06	0
    CmYaw:	-0.000510181	-0.000500638	-9.54309e-06	0
    Cs:	0.000446195	-1.37534e-06	0.00044757	0
    Cs(f):	-0.000287083	-0.000501325	0.000214242	0
    Cs(r):	0.000733278	0.00049995	0.000233328	0

Time = 38

smoothSolver:  Solving for Ux, Initial residual = 0.00589342, Final residual = 6.94435e-05, No Iterations 1
smoothSolver:  Solving for Uy, Initial residual = 0.00351839, Final residual = 4.10394e-05, No Iterations 1
smoothSolver:  Solving for Uz, Initial residual = 0.00581097, Final residual = 6.55195e-05, No Iterations 1
GAMG:  Solving for p, Initial residual = 0.0433735, Final residual = 0.00339467, No Iterations 2
time step continuity errors : sum local = 4.1513e-05, global = 9.01945e-06, cumulative = -0.000104846
smoothSolver:  Solving for omega, Initial residual = 0.0107371, Final residual = 9.52346e-05, No Iterations 1
smoothSolver:  Solving for k, Initial residual = 0.0127159, Final residual = 0.000111535, No Iterations 1
smoothSolver:  Solving for ReThetat, Initial residual = 0.0157917, Final residual = 4.10208e-09, No Iterations 1
smoothSolver:  Solving for gammaInt, Initial residual = 0.0652374, Final residual = 0.0584, No Iterations 100
ExecutionTime = 88.13 s  ClockTime = 89 s

forceCoeffs forceCoeffs write:
    Coefficient	Total	Pressure	Viscous	Internal
    Cd:	-0.155981	-0.00450317	-0.151478	0
    Cd(f):	-0.0784818	-0.00274399	-0.0757378	0
    Cd(r):	-0.0774995	-0.00175919	-0.0757403	0
    Cl:	0.0922804	-0.000645461	0.0929259	0
    Cl(f):	0.0793559	0.028381	0.0509749	0
    Cl(r):	0.0129245	-0.0290265	0.041951	0
    CmPitch:	0.0332157	0.0287037	0.00451197	0
    CmRoll:	-0.000491169	-0.000492401	1.23259e-06	0
    CmYaw:	-0.00050496	-0.000495507	-9.45302e-06	0
    Cs:	0.000273092	-1.42564e-06	0.000274518	0
    Cs(f):	-0.000368414	-0.000496219	0.000127806	0
    Cs(r):	0.000641506	0.000494794	0.000146712	0

Time = 39

smoothSolver:  Solving for Ux, Initial residual = 0.00550085, Final residual = 6.45845e-05, No Iterations 1
smoothSolver:  Solving for Uy, Initial residual = 0.00328527, Final residual = 3.81335e-05, No Iterations 1
smoothSolver:  Solving for Uz, Initial residual = 0.00550332, Final residual = 6.14567e-05, No Iterations 1
GAMG:  Solving for p, Initial residual = 0.0355568, Final residual = 0.00264447, No Iterations 2
time step continuity errors : sum local = 3.69751e-05, global = 6.86939e-06, cumulative = -9.79763e-05
smoothSolver:  Solving for omega, Initial residual = 0.0103939, Final residual = 9.26759e-05, No Iterations 1
smoothSolver:  Solving for k, Initial residual = 0.0123049, Final residual = 0.000108478, No Iterations 1
smoothSolver:  Solving for ReThetat, Initial residual = 0.0152814, Final residual = 4.02816e-09, No Iterations 1
smoothSolver:  Solving for gammaInt, Initial residual = 0.0648835, Final residual = 0.0572175, No Iterations 100
ExecutionTime = 90.2 s  ClockTime = 91 s

forceCoeffs forceCoeffs write:
    Coefficient	Total	Pressure	Viscous	Internal
    Cd:	-0.154142	-0.00445045	-0.149691	0
    Cd(f):	-0.0777163	-0.00287179	-0.0748445	0
    Cd(r):	-0.0764255	-0.00157866	-0.0748469	0
    Cl:	0.0957878	-0.00065062	0.0964384	0
    Cl(f):	0.0797512	0.027073	0.0526782	0
    Cl(r):	0.0160366	-0.0277236	0.0437602	0
    CmPitch:	0.0318573	0.0273983	0.00445901	0
    CmRoll:	-0.000645387	-0.000646561	1.17365e-06	0
    CmYaw:	-0.000500317	-0.000490942	-9.37478e-06	0
    Cs:	0.000102929	-1.52156e-06	0.00010445	0
    Cs(f):	-0.000448852	-0.000491703	4.28503e-05	0
    Cs(r):	0.000551781	0.000490181	6.15999e-05	0

Time = 40

smoothSolver:  Solving for Ux, Initial residual = 0.00498536, Final residual = 5.82422e-05, No Iterations 1
smoothSolver:  Solving for Uy, Initial residual = 0.00306799, Final residual = 3.54416e-05, No Iterations 1
smoothSolver:  Solving for Uz, Initial residual = 0.0051233, Final residual = 5.68192e-05, No Iterations 1
GAMG:  Solving for p, Initial residual = 0.0307266, Final residual = 0.00224476, No Iterations 2
time step continuity errors : sum local = 3.44607e-05, global = 4.69078e-06, cumulative = -9.32855e-05
smoothSolver:  Solving for omega, Initial residual = 0.0100692, Final residual = 9.02387e-05, No Iterations 1
smoothSolver:  Solving for k, Initial residual = 0.0119148, Final residual = 0.000105563, No Iterations 1
smoothSolver:  Solving for ReThetat, Initial residual = 0.0147933, Final residual = 3.95285e-09, No Iterations 1
smoothSolver:  Solving for gammaInt, Initial residual = 0.0635888, Final residual = 0.0563348, No Iterations 100
ExecutionTime = 92.26 s  ClockTime = 93 s

forceCoeffs forceCoeffs write:
    Coefficient	Total	Pressure	Viscous	Internal
    Cd:	-0.153502	-0.00439892	-0.149103	0
    Cd(f):	-0.0774645	-0.00291426	-0.0745503	0
    Cd(r):	-0.0760371	-0.00148466	-0.0745524	0
    Cl:	0.0978599	-0.000655447	0.0985153	0
    Cl(f):	0.0807032	0.0270391	0.0536642	0
    Cl(r):	0.0171567	-0.0276945	0.0448512	0
    CmPitch:	0.0317733	0.0273668	0.00440648	0
    CmRoll:	-0.000713704	-0.000714799	1.0943e-06	0
    CmYaw:	-0.000497884	-0.000488592	-9.29206e-06	0
    Cs:	4.80657e-06	-1.6267e-06	6.43327e-06	0
    Cs(f):	-0.000495481	-0.000489406	-6.07542e-06	0
    Cs(r):	0.000500288	0.000487779	1.25087e-05	0

Time = 41

smoothSolver:  Solving for Ux, Initial residual = 0.00454851, Final residual = 5.28971e-05, No Iterations 1
smoothSolver:  Solving for Uy, Initial residual = 0.00295902, Final residual = 3.41358e-05, No Iterations 1
smoothSolver:  Solving for Uz, Initial residual = 0.00481992, Final residual = 5.34082e-05, No Iterations 1
GAMG:  Solving for p, Initial residual = 0.0282876, Final residual = 0.00220103, No Iterations 2
time step continuity errors : sum local = 3.53008e-05, global = 1.11228e-06, cumulative = -9.21732e-05
smoothSolver:  Solving for omega, Initial residual = 0.00976054, Final residual = 8.79202e-05, No Iterations 1
smoothSolver:  Solving for k, Initial residual = 0.0115445, Final residual = 0.000102794, No Iterations 1
smoothSolver:  Solving for ReThetat, Initial residual = 0.0143268, Final residual = 3.87718e-09, No Iterations 1
smoothSolver:  Solving for gammaInt, Initial residual = 0.0629831, Final residual = 0.0562631, No Iterations 100
ExecutionTime = 94.33 s  ClockTime = 95 s

forceCoeffs forceCoeffs write:
    Coefficient	Total	Pressure	Viscous	Internal
    Cd:	-0.154265	-0.00434884	-0.149916	0
    Cd(f):	-0.0778483	-0.00289134	-0.074957	0
    Cd(r):	-0.0764165	-0.0014575	-0.074959	0
    Cl:	0.0995668	-0.000660131	0.100227	0
    Cl(f):	0.0828088	0.0283408	0.054468	0
    Cl(r):	0.0167579	-0.029001	0.0457589	0
    CmPitch:	0.0330255	0.0286709	0.00435455	0
    CmRoll:	-0.000715927	-0.000716919	9.91911e-07	0
    CmYaw:	-0.000498337	-0.000489115	-9.22156e-06	0
    Cs:	-3.67101e-05	-1.73992e-06	-3.49702e-05	0
    Cs(f):	-0.000516692	-0.000489985	-2.67066e-05	0
    Cs(r):	0.000479981	0.000488245	-8.26353e-06	0

Time = 42

smoothSolver:  Solving for Ux, Initial residual = 0.00426217, Final residual = 4.94596e-05, No Iterations 1
smoothSolver:  Solving for Uy, Initial residual = 0.00292335, Final residual = 3.37923e-05, No Iterations 1
smoothSolver:  Solving for Uz, Initial residual = 0.00464195, Final residual = 5.14637e-05, No Iterations 1
GAMG:  Solving for p, Initial residual = 0.0274954, Final residual = 0.00219261, No Iterations 2
time step continuity errors : sum local = 3.52758e-05, global = -4.32288e-06, cumulative = -9.64961e-05
smoothSolver:  Solving for omega, Initial residual = 0.00946974, Final residual = 8.57152e-05, No Iterations 1
smoothSolver:  Solving for k, Initial residual = 0.0111953, Final residual = 0.000100158, No Iterations 1
smoothSolver:  Solving for ReThetat, Initial residual = 0.013882, Final residual = 3.8025e-09, No Iterations 1
smoothSolver:  Solving for gammaInt, Initial residual = 0.0627685, Final residual = 0.0551646, No Iterations 100
ExecutionTime = 96.39 s  ClockTime = 97 s

forceCoeffs forceCoeffs write:
    Coefficient	Total	Pressure	Viscous	Internal
    Cd:	-0.156333	-0.00430054	-0.152032	0
    Cd(f):	-0.0788292	-0.00281405	-0.0760152	0
    Cd(r):	-0.0775035	-0.00148649	-0.076017	0
    Cl:	0.1016	-0.000664742	0.102265	0
    Cl(f):	0.0861751	0.030739	0.0554361	0
    Cl(r):	0.0154251	-0.0314037	0.0468289	0
    CmPitch:	0.035375	0.0310714	0.00430362	0
    CmRoll:	-0.000662857	-0.000663777	9.19666e-07	0
    CmYaw:	-0.000501556	-0.000492408	-9.14782e-06	0
    Cs:	-9.87469e-07	-1.81886e-06	8.31386e-07	0
    Cs(f):	-0.000502049	-0.000493317	-8.73213e-06	0
    Cs(r):	0.000501062	0.000491498	9.56352e-06	0

Time = 43

smoothSolver:  Solving for Ux, Initial residual = 0.00408946, Final residual = 4.76777e-05, No Iterations 1
smoothSolver:  Solving for Uy, Initial residual = 0.00290463, Final residual = 3.36077e-05, No Iterations 1
smoothSolver:  Solving for Uz, Initial residual = 0.00454099, Final residual = 5.06878e-05, No Iterations 1
GAMG:  Solving for p, Initial residual = 0.0274749, Final residual = 0.00222729, No Iterations 2
time step continuity errors : sum local = 3.50466e-05, global = -8.85003e-06, cumulative = -0.000105346
smoothSolver:  Solving for omega, Initial residual = 0.00919147, Final residual = 8.35933e-05, No Iterations 1
smoothSolver:  Solving for k, Initial residual = 0.0108638, Final residual = 9.76416e-05, No Iterations 1
smoothSolver:  Solving for ReThetat, Initial residual = 0.0134563, Final residual = 3.72886e-09, No Iterations 1
smoothSolver:  Solving for gammaInt, Initial residual = 0.0617111, Final residual = 0.0547046, No Iterations 100
ExecutionTime = 98.43 s  ClockTime = 100 s

forceCoeffs forceCoeffs write:
    Coefficient	Total	Pressure	Viscous	Internal
    Cd:	-0.159425	-0.00425404	-0.155171	0
    Cd(f):	-0.0803173	-0.00273281	-0.0775845	0
    Cd(r):	-0.0791074	-0.00152122	-0.0775862	0
    Cl:	0.104423	-0.000669324	0.105093	0
    Cl(f):	0.0907353	0.0339351	0.0568002	0
    Cl(r):	0.0136881	-0.0346045	0.0482926	0
    CmPitch:	0.0385236	0.0342698	0.0042538	0
    CmRoll:	-0.000604949	-0.000605796	8.46727e-07	0
    CmYaw:	-0.000507176	-0.000498102	-9.07407e-06	0
    Cs:	5.82856e-05	-1.89315e-06	6.01787e-05	0
    Cs(f):	-0.000478033	-0.000499049	2.10153e-05	0
    Cs(r):	0.000536319	0.000497156	3.91634e-05	0

Time = 44

smoothSolver:  Solving for Ux, Initial residual = 0.00399428, Final residual = 4.69272e-05, No Iterations 1
smoothSolver:  Solving for Uy, Initial residual = 0.00289082, Final residual = 3.34814e-05, No Iterations 1
smoothSolver:  Solving for Uz, Initial residual = 0.00447254, Final residual = 5.03177e-05, No Iterations 1
GAMG:  Solving for p, Initial residual = 0.0279837, Final residual = 0.00221209, No Iterations 2
time step continuity errors : sum local = 3.34383e-05, global = -1.07397e-05, cumulative = -0.000116086
smoothSolver:  Solving for omega, Initial residual = 0.00892736, Final residual = 8.15483e-05, No Iterations 1
smoothSolver:  Solving for k, Initial residual = 0.0105517, Final residual = 9.52634e-05, No Iterations 1
smoothSolver:  Solving for ReThetat, Initial residual = 0.0130493, Final residual = 3.65678e-09, No Iterations 1
smoothSolver:  Solving for gammaInt, Initial residual = 0.0722884, Final residual = 0.0634607, No Iterations 100
ExecutionTime = 100.51 s  ClockTime = 102 s

forceCoeffs forceCoeffs write:
    Coefficient	Total	Pressure	Viscous	Internal
    Cd:	-0.163187	-0.00420957	-0.158978	0
    Cd(f):	-0.0821491	-0.00266111	-0.079488	0
    Cd(r):	-0.0810381	-0.00154847	-0.0794896	0
    Cl:	0.108144	-0.000673834	0.108818	0
    Cl(f):	0.0961934	0.037579	0.0586144	0
    Cl(r):	0.0119505	-0.0382529	0.0502033	0
    CmPitch:	0.0421215	0.037916	0.00420553	0
    CmRoll:	-0.000555497	-0.000556318	8.21607e-07	0
    CmYaw:	-0.000514488	-0.000505483	-9.00547e-06	0
    Cs:	0.000139505	-1.93245e-06	0.000141438	0
    Cs(f):	-0.000444736	-0.000506449	6.17135e-05	0
    Cs(r):	0.000584241	0.000504517	7.97244e-05	0

Time = 45

smoothSolver:  Solving for Ux, Initial residual = 0.00397955, Final residual = 4.70146e-05, No Iterations 1
smoothSolver:  Solving for Uy, Initial residual = 0.00287778, Final residual = 3.33526e-05, No Iterations 1
smoothSolver:  Solving for Uz, Initial residual = 0.00443501, Final residual = 5.03089e-05, No Iterations 1
GAMG:  Solving for p, Initial residual = 0.0286008, Final residual = 0.00216814, No Iterations 2
time step continuity errors : sum local = 3.10803e-05, global = -1.03601e-05, cumulative = -0.000126446
smoothSolver:  Solving for omega, Initial residual = 0.00867667, Final residual = 7.95829e-05, No Iterations 1
smoothSolver:  Solving for k, Initial residual = 0.0102541, Final residual = 9.29802e-05, No Iterations 1
smoothSolver:  Solving for ReThetat, Initial residual = 0.0126614, Final residual = 3.58679e-09, No Iterations 1
smoothSolver:  Solving for gammaInt, Initial residual = 0.0704262, Final residual = 0.0624235, No Iterations 100
ExecutionTime = 102.58 s  ClockTime = 104 s

forceCoeffs forceCoeffs write:
    Coefficient	Total	Pressure	Viscous	Internal
    Cd:	-0.167094	-0.0041672	-0.162927	0
    Cd(f):	-0.0840853	-0.00262251	-0.0814628	0
    Cd(r):	-0.0830091	-0.00154469	-0.0814645	0
    Cl:	0.112597	-0.000678243	0.113275	0
    Cl(f):	0.102016	0.0412195	0.0607967	0
    Cl(r):	0.010581	-0.0418978	0.0524788	0
    CmPitch:	0.0457176	0.0415586	0.00415899	0
    CmRoll:	-0.000538084	-0.000538913	8.29142e-07	0
    CmYaw:	-0.000522425	-0.000513471	-8.95388e-06	0
    Cs:	0.000206584	-1.95062e-06	0.000208535	0
    Cs(f):	-0.000419133	-0.000514446	9.53135e-05	0
    Cs(r):	0.000625717	0.000512495	0.000113221	0

Time = 46

smoothSolver:  Solving for Ux, Initial residual = 0.00404364, Final residual = 4.79379e-05, No Iterations 1
smoothSolver:  Solving for Uy, Initial residual = 0.00286302, Final residual = 3.32029e-05, No Iterations 1
smoothSolver:  Solving for Uz, Initial residual = 0.00443625, Final residual = 5.07211e-05, No Iterations 1
GAMG:  Solving for p, Initial residual = 0.0292703, Final residual = 0.0020668, No Iterations 2
time step continuity errors : sum local = 2.8019e-05, global = -8.55055e-06, cumulative = -0.000134997
smoothSolver:  Solving for omega, Initial residual = 0.00843625, Final residual = 7.77045e-05, No Iterations 1
smoothSolver:  Solving for k, Initial residual = 0.00996703, Final residual = 9.07685e-05, No Iterations 1
smoothSolver:  Solving for ReThetat, Initial residual = 0.0122907, Final residual = 3.51899e-09, No Iterations 1
smoothSolver:  Solving for gammaInt, Initial residual = 0.0705746, Final residual = 0.0623132, No Iterations 100
ExecutionTime = 104.65 s  ClockTime = 106 s

forceCoeffs forceCoeffs write:
    Coefficient	Total	Pressure	Viscous	Internal
    Cd:	-0.170661	-0.00412614	-0.166535	0
    Cd(f):	-0.0858832	-0.00261635	-0.0832669	0
    Cd(r):	-0.0847783	-0.00150979	-0.0832685	0
    Cl:	0.117417	-0.000682566	0.1181	0
    Cl(f):	0.107622	0.0444591	0.0631631	0
    Cl(r):	0.00979498	-0.0451416	0.0549366	0
    CmPitch:	0.0489136	0.0448004	0.00411324	0
    CmRoll:	-0.000552479	-0.000553279	7.9954e-07	0
    CmYaw:	-0.000529937	-0.000521041	-8.8967e-06	0
    Cs:	0.000252304	-2.00251e-06	0.000254307	0
    Cs(f):	-0.000403785	-0.000522042	0.000118257	0
    Cs(r):	0.00065609	0.00052004	0.00013605	0

Time = 47

[...]
    in file ../turbulenceModels/lnInclude/kOmegaSSTLM.C at line 326
    Number of lambda iterations exceeds maxLambdaIter(10)
smoothSolver:  Solving for ReThetat, Initial residual = 0.000769386, Final residual = 1.17443e-09, No Iterations 1
smoothSolver:  Solving for gammaInt, Initial residual = 0.024107, Final residual = 0.000144347, No Iterations 1
ExecutionTime = 1181.64 s  ClockTime = 1196 s

forceCoeffs forceCoeffs write:
    Coefficient	Total	Pressure	Viscous	Internal
    Cd:	-0.255923	-0.00242946	-0.253493	0
    Cd(f):	-0.129912	-0.00316348	-0.126748	0
    Cd(r):	-0.126011	0.000734025	-0.126745	0
    Cl:	0.33269	-0.000443692	0.333134	0
    Cl(f):	0.281145	0.112389	0.168756	0
    Cl(r):	0.0515453	-0.112833	0.164378	0
    CmPitch:	0.1148	0.112611	0.00218896	0
    CmRoll:	-0.00195048	-0.00194875	-1.7316e-06	0
    CmYaw:	-0.000704985	-0.000698463	-6.52203e-06	0
    Cs:	-0.000881897	-4.31496e-06	-0.000877582	0
    Cs(f):	-0.00114593	-0.00070062	-0.000445313	0
    Cs(r):	0.000264036	0.000696306	-0.000432269	0

Time = 793

smoothSolver:  Solving for Ux, Initial residual = 0.00648558, Final residual = 7.85156e-05, No Iterations 1
smoothSolver:  Solving for Uy, Initial residual = 0.00279098, Final residual = 3.37857e-05, No Iterations 1
smoothSolver:  Solving for Uz, Initial residual = 0.00821085, Final residual = 0.000100943, No Iterations 1
GAMG:  Solving for p, Initial residual = 0.0158669, Final residual = 0.00155638, No Iterations 1
time step continuity errors : sum local = 3.46031e-05, global = -2.95452e-07, cumulative = -2.33979e-05
smoothSolver:  Solving for omega, Initial residual = 0.000899464, Final residual = 1.00929e-05, No Iterations 1
bounding omega, min: -5.28321 max: 965.366 average: 19.7739
smoothSolver:  Solving for k, Initial residual = 0.00289832, Final residual = 3.28391e-05, No Iterations 1
bounding k, min: -0.101145 max: 114.842 average: 1.6412
--> FOAM Warning : 
    From Foam::tmp<Foam::DimensionedField<double, Foam::volMesh> > Foam::RASModels::kOmegaSSTLM<BasicTurbulenceModel>::ReThetat0(const Internal&, const Internal&, const Internal&) const [with BasicTurbulenceModel = Foam::IncompressibleTurbulenceModel<Foam::transportModel>; Foam::GeometricField<double, Foam::fvPatchField, Foam::volMesh>::Internal = Foam::DimensionedField<double, Foam::volMesh>]
    in file ../turbulenceModels/lnInclude/kOmegaSSTLM.C at line 326
    Number of lambda iterations exceeds maxLambdaIter(10)
smoothSolver:  Solving for ReThetat, Initial residual = 0.000770934, Final residual = 1.17746e-09, No Iterations 1
smoothSolver:  Solving for gammaInt, Initial residual = 0.0217169, Final residual = 9.61152e-05, No Iterations 1
ExecutionTime = 1182.8 s  ClockTime = 1198 s

forceCoeffs forceCoeffs write:
    Coefficient	Total	Pressure	Viscous	Internal
    Cd:	-0.25559	-0.00242865	-0.253161	0
    Cd(f):	-0.129735	-0.00315213	-0.126582	0
    Cd(r):	-0.125855	0.000723482	-0.126579	0
    Cl:	0.331546	-0.000445381	0.331992	0
    Cl(f):	0.280232	0.112047	0.168185	0
    Cl(r):	0.0513146	-0.112492	0.163807	0
    CmPitch:	0.114459	0.11227	0.00218881	0
    CmRoll:	-0.00193953	-0.00193781	-1.72069e-06	0
    CmYaw:	-0.000703999	-0.000697492	-6.50636e-06	0
    Cs:	-0.0008724	-4.30242e-06	-0.000868097	0
    Cs(f):	-0.0011402	-0.000699644	-0.000440555	0
    Cs(r):	0.000267799	0.000695341	-0.000427542	0

Time = 794

smoothSolver:  Solving for Ux, Initial residual = 0.00646987, Final residual = 7.81586e-05, No Iterations 1
smoothSolver:  Solving for Uy, Initial residual = 0.00278731, Final residual = 3.37122e-05, No Iterations 1
smoothSolver:  Solving for Uz, Initial residual = 0.00819698, Final residual = 0.000100642, No Iterations 1
GAMG:  Solving for p, Initial residual = 0.0160907, Final residual = 0.000458829, No Iterations 2
time step continuity errors : sum local = 1.01943e-05, global = 8.50666e-08, cumulative = -2.33129e-05
smoothSolver:  Solving for omega, Initial residual = 0.000899412, Final residual = 1.00543e-05, No Iterations 1
bounding omega, min: -5.92287 max: 965.451 average: 19.7755
smoothSolver:  Solving for k, Initial residual = 0.00289372, Final residual = 3.27104e-05, No Iterations 1
bounding k, min: -0.288616 max: 114.118 average: 1.64173
--> FOAM Warning : 
    From Foam::tmp<Foam::DimensionedField<double, Foam::volMesh> > Foam::RASModels::kOmegaSSTLM<BasicTurbulenceModel>::ReThetat0(const Internal&, const Internal&, const Internal&) const [with BasicTurbulenceModel = Foam::IncompressibleTurbulenceModel<Foam::transportModel>; Foam::GeometricField<double, Foam::fvPatchField, Foam::volMesh>::Internal = Foam::DimensionedField<double, Foam::volMesh>]
    in file ../turbulenceModels/lnInclude/kOmegaSSTLM.C at line 326
    Number of lambda iterations exceeds maxLambdaIter(10)
smoothSolver:  Solving for ReThetat, Initial residual = 0.000771994, Final residual = 1.16723e-09, No Iterations 1
smoothSolver:  Solving for gammaInt, Initial residual = 0.0216168, Final residual = 0.000122932, No Iterations 1
ExecutionTime = 1183.97 s  ClockTime = 1199 s

forceCoeffs forceCoeffs write:
    Coefficient	Total	Pressure	Viscous	Internal
    Cd:	-0.255146	-0.00242779	-0.252718	0
    Cd(f):	-0.129516	-0.00315501	-0.126361	0
    Cd(r):	-0.12563	0.000727221	-0.126357	0
    Cl:	0.329774	-0.000447159	0.330221	0
    Cl(f):	0.278868	0.111569	0.167299	0
    Cl(r):	0.0509063	-0.112016	0.162922	0
    CmPitch:	0.113981	0.111792	0.00218852	0
    CmRoll:	-0.00194283	-0.00194112	-1.71039e-06	0
    CmYaw:	-0.000702903	-0.000696413	-6.49e-06	0
    Cs:	-0.000883328	-4.29091e-06	-0.000879037	0
    Cs(f):	-0.00114457	-0.000698558	-0.000446009	0
    Cs(r):	0.000261239	0.000694267	-0.000433029	0

Time = 795

smoothSolver:  Solving for Ux, Initial residual = 0.00646984, Final residual = 7.80073e-05, No Iterations 1
smoothSolver:  Solving for Uy, Initial residual = 0.00278577, Final residual = 3.3653e-05, No Iterations 1
smoothSolver:  Solving for Uz, Initial residual = 0.00819411, Final residual = 0.000100517, No Iterations 1
GAMG:  Solving for p, Initial residual = 0.0160981, Final residual = 0.00153677, No Iterations 1
time step continuity errors : sum local = 3.41237e-05, global = -3.046e-07, cumulative = -2.36175e-05
smoothSolver:  Solving for omega, Initial residual = 0.000898549, Final residual = 1.00159e-05, No Iterations 1
bounding omega, min: -5.24261 max: 965.518 average: 19.777
smoothSolver:  Solving for k, Initial residual = 0.00288915, Final residual = 3.26068e-05, No Iterations 1
bounding k, min: -0.161196 max: 113.322 average: 1.6423
--> FOAM Warning : 
    From Foam::tmp<Foam::DimensionedField<double, Foam::volMesh> > Foam::RASModels::kOmegaSSTLM<BasicTurbulenceModel>::ReThetat0(const Internal&, const Internal&, const Internal&) const [with BasicTurbulenceModel = Foam::IncompressibleTurbulenceModel<Foam::transportModel>; Foam::GeometricField<double, Foam::fvPatchField, Foam::volMesh>::Internal = Foam::DimensionedField<double, Foam::volMesh>]
    in file ../turbulenceModels/lnInclude/kOmegaSSTLM.C at line 326
    Number of lambda iterations exceeds maxLambdaIter(10)
smoothSolver:  Solving for ReThetat, Initial residual = 0.000773662, Final residual = 1.18227e-09, No Iterations 1
smoothSolver:  Solving for gammaInt, Initial residual = 0.0212527, Final residual = 0.000108123, No Iterations 1
ExecutionTime = 1185.14 s  ClockTime = 1200 s

forceCoeffs forceCoeffs write:
    Coefficient	Total	Pressure	Viscous	Internal
    Cd:	-0.254864	-0.00242691	-0.252437	0
    Cd(f):	-0.129362	-0.00314239	-0.12622	0
    Cd(r):	-0.125501	0.000715478	-0.126217	0
    Cl:	0.328773	-0.000448969	0.329222	0
    Cl(f):	0.278074	0.111275	0.166799	0
    Cl(r):	0.0506985	-0.111724	0.162423	0
    CmPitch:	0.113688	0.1115	0.00218814	0
    CmRoll:	-0.00193063	-0.00192894	-1.69886e-06	0
    CmYaw:	-0.000702043	-0.00069557	-6.47368e-06	0
    Cs:	-0.000872208	-4.27827e-06	-0.00086793	0
    Cs(f):	-0.00113815	-0.000697709	-0.000440439	0
    Cs(r):	0.000265939	0.000693431	-0.000427491	0

Time = 796

smoothSolver:  Solving for Ux, Initial residual = 0.00645871, Final residual = 7.76826e-05, No Iterations 1
smoothSolver:  Solving for Uy, Initial residual = 0.00278019, Final residual = 3.3562e-05, No Iterations 1
smoothSolver:  Solving for Uz, Initial residual = 0.00818538, Final residual = 0.0001003, No Iterations 1
GAMG:  Solving for p, Initial residual = 0.0163254, Final residual = 0.00161373, No Iterations 1
time step continuity errors : sum local = 3.58115e-05, global = -3.49328e-07, cumulative = -2.39668e-05
smoothSolver:  Solving for omega, Initial residual = 0.000897494, Final residual = 9.97291e-06, No Iterations 1
bounding omega, min: -6.00291 max: 965.581 average: 19.779
smoothSolver:  Solving for k, Initial residual = 0.0028882, Final residual = 3.25389e-05, No Iterations 1
bounding k, min: -0.136522 max: 113.033 average: 1.64283
--> FOAM Warning : 
    From Foam::tmp<Foam::DimensionedField<double, Foam::volMesh> > Foam::RASModels::kOmegaSSTLM<BasicTurbulenceModel>::ReThetat0(const Internal&, const Internal&, const Internal&) const [with BasicTurbulenceModel = Foam::IncompressibleTurbulenceModel<Foam::transportModel>; Foam::GeometricField<double, Foam::fvPatchField, Foam::volMesh>::Internal = Foam::DimensionedField<double, Foam::volMesh>]
    in file ../turbulenceModels/lnInclude/kOmegaSSTLM.C at line 326
    Number of lambda iterations exceeds maxLambdaIter(10)
smoothSolver:  Solving for ReThetat, Initial residual = 0.000773784, Final residual = 1.20449e-09, No Iterations 1
smoothSolver:  Solving for gammaInt, Initial residual = 0.0215403, Final residual = 7.74933e-05, No Iterations 1
ExecutionTime = 1186.31 s  ClockTime = 1201 s

forceCoeffs forceCoeffs write:
    Coefficient	Total	Pressure	Viscous	Internal
    Cd:	-0.254597	-0.00242603	-0.252171	0
    Cd(f):	-0.12922	-0.0031325	-0.126087	0
    Cd(r):	-0.125377	0.000706462	-0.126084	0
    Cl:	0.327774	-0.000450803	0.328224	0
    Cl(f):	0.277292	0.110992	0.1663	0
    Cl(r):	0.0504819	-0.111443	0.161925	0
    CmPitch:	0.113405	0.111217	0.00218767	0
    CmRoll:	-0.00192117	-0.00191948	-1.68661e-06	0
    CmYaw:	-0.000701251	-0.000694794	-6.45651e-06	0
    Cs:	-0.000865767	-4.2645e-06	-0.000861502	0
    Cs(f):	-0.00113413	-0.000696927	-0.000437208	0
    Cs(r):	0.000268368	0.000692662	-0.000424295	0

Time = 797

smoothSolver:  Solving for Ux, Initial residual = 0.00644852, Final residual = 7.73935e-05, No Iterations 1
smoothSolver:  Solving for Uy, Initial residual = 0.00277514, Final residual = 3.34908e-05, No Iterations 1
smoothSolver:  Solving for Uz, Initial residual = 0.00817344, Final residual = 0.000100091, No Iterations 1
GAMG:  Solving for p, Initial residual = 0.0165981, Final residual = 0.000488681, No Iterations 2
time step continuity errors : sum local = 1.08388e-05, global = 1.80049e-08, cumulative = -2.39488e-05
smoothSolver:  Solving for omega, Initial residual = 0.000896413, Final residual = 9.92248e-06, No Iterations 1
bounding omega, min: -5.32124 max: 965.625 average: 19.7808
smoothSolver:  Solving for k, Initial residual = 0.0028862, Final residual = 3.24551e-05, No Iterations 1
bounding k, min: -0.206592 max: 112.659 average: 1.64342
--> FOAM Warning : 
    From Foam::tmp<Foam::DimensionedField<double, Foam::volMesh> > Foam::RASModels::kOmegaSSTLM<BasicTurbulenceModel>::ReThetat0(const Internal&, const Internal&, const Internal&) const [with BasicTurbulenceModel = Foam::IncompressibleTurbulenceModel<Foam::transportModel>; Foam::GeometricField<double, Foam::fvPatchField, Foam::volMesh>::Internal = Foam::DimensionedField<double, Foam::volMesh>]
    in file ../turbulenceModels/lnInclude/kOmegaSSTLM.C at line 326
    Number of lambda iterations exceeds maxLambdaIter(10)
smoothSolver:  Solving for ReThetat, Initial residual = 0.000777408, Final residual = 1.21504e-09, No Iterations 1
smoothSolver:  Solving for gammaInt, Initial residual = 0.0244907, Final residual = 9.69749e-05, No Iterations 1
ExecutionTime = 1187.53 s  ClockTime = 1202 s

forceCoeffs forceCoeffs write:
    Coefficient	Total	Pressure	Viscous	Internal
    Cd:	-0.254231	-0.00242512	-0.251806	0
    Cd(f):	-0.129046	-0.00314164	-0.125905	0
    Cd(r):	-0.125185	0.00071652	-0.125901	0
    Cl:	0.326148	-0.000452715	0.326601	0
    Cl(f):	0.276056	0.110569	0.165487	0
    Cl(r):	0.0500915	-0.111022	0.161113	0
    CmPitch:	0.112982	0.110795	0.00218709	0
    CmRoll:	-0.00193076	-0.00192908	-1.67726e-06	0
    CmYaw:	-0.000700343	-0.000693905	-6.43804e-06	0
    Cs:	-0.000883895	-4.25471e-06	-0.000879641	0
    Cs(f):	-0.00114229	-0.000696032	-0.000446258	0
    Cs(r):	0.000258395	0.000691777	-0.000433382	0

Time = 798

smoothSolver:  Solving for Ux, Initial residual = 0.00645179, Final residual = 7.73045e-05, No Iterations 1
smoothSolver:  Solving for Uy, Initial residual = 0.00277383, Final residual = 3.34355e-05, No Iterations 1
smoothSolver:  Solving for Uz, Initial residual = 0.00816607, Final residual = 0.000100004, No Iterations 1
GAMG:  Solving for p, Initial residual = 0.0165979, Final residual = 0.00162347, No Iterations 1
time step continuity errors : sum local = 3.59946e-05, global = -4.20833e-07, cumulative = -2.43696e-05
smoothSolver:  Solving for omega, Initial residual = 0.000894692, Final residual = 9.86994e-06, No Iterations 1
bounding omega, min: -6.0056 max: 965.666 average: 19.7825
smoothSolver:  Solving for k, Initial residual = 0.0028844, Final residual = 3.24332e-05, No Iterations 1
bounding k, min: -0.151839 max: 112.203 average: 1.64404
--> FOAM Warning : 
    From Foam::tmp<Foam::DimensionedField<double, Foam::volMesh> > Foam::RASModels::kOmegaSSTLM<BasicTurbulenceModel>::ReThetat0(const Internal&, const Internal&, const Internal&) const [with BasicTurbulenceModel = Foam::IncompressibleTurbulenceModel<Foam::transportModel>; Foam::GeometricField<double, Foam::fvPatchField, Foam::volMesh>::Internal = Foam::DimensionedField<double, Foam::volMesh>]
    in file ../turbulenceModels/lnInclude/kOmegaSSTLM.C at line 326
    Number of lambda iterations exceeds maxLambdaIter(10)
smoothSolver:  Solving for ReThetat, Initial residual = 0.000782817, Final residual = 1.18226e-09, No Iterations 1
smoothSolver:  Solving for gammaInt, Initial residual = 0.0189728, Final residual = 7.65828e-05, No Iterations 1
ExecutionTime = 1188.74 s  ClockTime = 1204 s

forceCoeffs forceCoeffs write:
    Coefficient	Total	Pressure	Viscous	Internal
    Cd:	-0.254012	-0.00242421	-0.251587	0
    Cd(f):	-0.128928	-0.00313227	-0.125795	0
    Cd(r):	-0.125084	0.000708056	-0.125792	0
    Cl:	0.325278	-0.000454654	0.325733	0
    Cl(f):	0.275381	0.110328	0.165053	0
    Cl(r):	0.0498971	-0.110783	0.16068	0
    CmPitch:	0.112742	0.110556	0.00218643	0
    CmRoll:	-0.00192183	-0.00192016	-1.6672e-06	0
    CmYaw:	-0.000699613	-0.000693194	-6.41955e-06	0
    Cs:	-0.000878077	-4.24483e-06	-0.000873832	0
    Cs(f):	-0.00113865	-0.000695316	-0.000443336	0
    Cs(r):	0.000260575	0.000691071	-0.000430496	0

Time = 799

smoothSolver:  Solving for Ux, Initial residual = 0.00644046, Final residual = 7.70185e-05, No Iterations 1
smoothSolver:  Solving for Uy, Initial residual = 0.00276964, Final residual = 3.33607e-05, No Iterations 1
smoothSolver:  Solving for Uz, Initial residual = 0.0081458, Final residual = 9.97404e-05, No Iterations 1
GAMG:  Solving for p, Initial residual = 0.0168195, Final residual = 0.000479284, No Iterations 2
time step continuity errors : sum local = 1.06228e-05, global = -4.66592e-08, cumulative = -2.44163e-05
smoothSolver:  Solving for omega, Initial residual = 0.000894139, Final residual = 9.82655e-06, No Iterations 1
bounding omega, min: -5.25957 max: 965.689 average: 19.7843
smoothSolver:  Solving for k, Initial residual = 0.00288184, Final residual = 3.24159e-05, No Iterations 1
bounding k, min: -0.114295 max: 111.659 average: 1.64471
--> FOAM Warning : 
    From Foam::tmp<Foam::DimensionedField<double, Foam::volMesh> > Foam::RASModels::kOmegaSSTLM<BasicTurbulenceModel>::ReThetat0(const Internal&, const Internal&, const Internal&) const [with BasicTurbulenceModel = Foam::IncompressibleTurbulenceModel<Foam::transportModel>; Foam::GeometricField<double, Foam::fvPatchField, Foam::volMesh>::Internal = Foam::DimensionedField<double, Foam::volMesh>]
    in file ../turbulenceModels/lnInclude/kOmegaSSTLM.C at line 326
    Number of lambda iterations exceeds maxLambdaIter(10)
smoothSolver:  Solving for ReThetat, Initial residual = 0.000789708, Final residual = 1.1903e-09, No Iterations 1
smoothSolver:  Solving for gammaInt, Initial residual = 0.0254537, Final residual = 9.55004e-05, No Iterations 1
ExecutionTime = 1189.96 s  ClockTime = 1205 s

forceCoeffs forceCoeffs write:
    Coefficient	Total	Pressure	Viscous	Internal
    Cd:	-0.253719	-0.00242328	-0.251296	0
    Cd(f):	-0.128787	-0.00313721	-0.12565	0
    Cd(r):	-0.124932	0.000713938	-0.125646	0
    Cl:	0.323892	-0.000456655	0.324349	0
    Cl(f):	0.274331	0.109971	0.16436	0
    Cl(r):	0.0495612	-0.110427	0.159989	0
    CmPitch:	0.112385	0.110199	0.00218565	0
    CmRoll:	-0.00192723	-0.00192558	-1.65748e-06	0
    CmYaw:	-0.000698789	-0.000692389	-6.40002e-06	0
    Cs:	-0.000886984	-4.2361e-06	-0.000882748	0
    Cs(f):	-0.00114228	-0.000694507	-0.000447774	0
    Cs(r):	0.000255297	0.000690271	-0.000434974	0

Time = 800

smoothSolver:  Solving for Ux, Initial residual = 0.00644125, Final residual = 7.69554e-05, No Iterations 1
smoothSolver:  Solving for Uy, Initial residual = 0.0027673, Final residual = 3.33091e-05, No Iterations 1
smoothSolver:  Solving for Uz, Initial residual = 0.00814235, Final residual = 9.95572e-05, No Iterations 1
GAMG:  Solving for p, Initial residual = 0.0167891, Final residual = 0.00157753, No Iterations 1
time step continuity errors : sum local = 3.49598e-05, global = -4.78693e-07, cumulative = -2.4895e-05
smoothSolver:  Solving for omega, Initial residual = 0.000894039, Final residual = 9.7939e-06, No Iterations 1
bounding omega, min: -5.08262 max: 965.709 average: 19.7862
smoothSolver:  Solving for k, Initial residual = 0.00287702, Final residual = 3.23824e-05, No Iterations 1
bounding k, min: -0.275514 max: 111.029 average: 1.64537
--> FOAM Warning : 
    From Foam::tmp<Foam::DimensionedField<double, Foam::volMesh> > Foam::RASModels::kOmegaSSTLM<BasicTurbulenceModel>::ReThetat0(const Internal&, const Internal&, const Internal&) const [with BasicTurbulenceModel = Foam::IncompressibleTurbulenceModel<Foam::transportModel>; Foam::GeometricField<double, Foam::fvPatchField, Foam::volMesh>::Internal = Foam::DimensionedField<double, Foam::volMesh>]
    in file ../turbulenceModels/lnInclude/kOmegaSSTLM.C at line 326
    Number of lambda iterations exceeds maxLambdaIter(10)
smoothSolver:  Solving for ReThetat, Initial residual = 0.000798329, Final residual = 1.16329e-09, No Iterations 1
smoothSolver:  Solving for gammaInt, Initial residual = 0.0335856, Final residual = 0.00010737, No Iterations 1
ExecutionTime = 1192.65 s  ClockTime = 1208 s

forceCoeffs forceCoeffs write:
    Coefficient	Total	Pressure	Viscous	Internal
    Cd:	-0.253567	-0.00242236	-0.251144	0
    Cd(f):	-0.128699	-0.0031251	-0.125574	0
    Cd(r):	-0.124868	0.000702741	-0.125571	0
    Cl:	0.323204	-0.000458666	0.323663	0
    Cl(f):	0.273808	0.109791	0.164016	0
    Cl(r):	0.0493966	-0.11025	0.159647	0
    CmPitch:	0.112206	0.110021	0.00218482	0
    CmRoll:	-0.00191557	-0.00191392	-1.64619e-06	0
    CmYaw:	-0.000698172	-0.000691791	-6.38082e-06	0
    Cs:	-0.000876309	-4.22631e-06	-0.000872082	0
    Cs(f):	-0.00113633	-0.000693904	-0.000442422	0
    Cs(r):	0.000260017	0.000689678	-0.00042966	0

    writing force and moment coefficient files.

yPlus yPlus write:
    writing field yPlus
    patch sfera1 y+ : min = 204.207, max = 14627.9, average = 2660.39
    patch sfera2 y+ : min = 161.58, max = 14465.9, average = 2581.84
End

